Version 4
SHEET 1 880 680
WIRE -32 -48 -96 -48
WIRE 48 -48 32 -48
WIRE 48 -16 48 -48
WIRE 112 -16 48 -16
WIRE 304 16 224 16
WIRE 112 48 48 48
WIRE -96 80 -96 -48
WIRE -32 80 -96 80
WIRE 48 80 48 48
WIRE 48 80 32 80
WIRE -96 160 -96 80
WIRE -96 160 -208 160
WIRE -96 256 -96 160
WIRE 16 256 -96 256
WIRE 96 256 48 256
WIRE 96 288 96 256
WIRE 112 288 96 288
WIRE -96 320 -96 256
WIRE 112 320 -96 320
WIRE 304 320 224 320
WIRE 112 352 96 352
WIRE -96 400 -96 320
WIRE -80 400 -96 400
WIRE 96 400 96 352
WIRE 96 400 80 400
WIRE 160 400 160 96
WIRE 160 448 160 400
WIRE 160 448 -208 448
FLAG 112 16 0
FLAG 304 16 C
FLAG 304 320 S
FLAG -208 160 A
FLAG -208 448 B
SYMBOL mux3-1 176 -16 R0
SYMATTR InstName Xmux_carry1
SYMBOL diode -32 -32 R270
WINDOW 0 32 32 VTop 0
WINDOW 3 0 32 VBottom 0
SYMATTR InstName D1
SYMBOL diode 32 64 R90
WINDOW 0 0 32 VBottom 0
WINDOW 3 32 32 VTop 0
SYMATTR InstName D2
SYMBOL mux3-1 176 288 R0
SYMATTR InstName Xmux_sum1
SYMBOL tcycle_down 32 256 R0
SYMATTR InstName X1
SYMBOL diode 32 384 R90
WINDOW 0 0 32 VBottom 0
WINDOW 3 32 32 VTop 0
SYMATTR InstName D3
SYMBOL sti 48 400 R0
SYMATTR InstName X2
SYMBOL nti -64 400 R0
SYMATTR InstName X3
