Version 4
SHEET 1 880 708
WIRE -48 16 -112 16
WIRE 224 16 -48 16
WIRE 496 16 384 16
WIRE 224 64 48 64
WIRE 496 64 384 64
WIRE -112 288 -112 16
WIRE 48 288 48 64
WIRE -112 400 -112 368
WIRE -16 400 -112 400
WIRE 48 400 48 368
WIRE 48 400 -16 400
WIRE -16 432 -16 400
FLAG -288 176 $G_Vss
FLAG -288 112 $G_Vdd
FLAG -16 432 0
FLAG -48 16 A
FLAG 48 64 B
FLAG 496 16 C
FLAG 496 64 S
SYMBOL tpower -288 144 R0
SYMATTR InstName X1
SYMBOL voltage -112 272 R0
WINDOW 3 -171 104 Left 0
WINDOW 123 0 0 Left 0
WINDOW 39 0 0 Left 0
SYMATTR InstName VA
SYMATTR Value PWL file=INPUT_A.txt
SYMBOL voltage 48 272 R0
WINDOW 3 -86 103 Left 0
WINDOW 123 0 0 Left 0
WINDOW 39 0 0 Left 0
SYMATTR InstName VB
SYMATTR Value PWL file=INPUT_B.txt
SYMBOL adder 304 -32 R0
SYMATTR InstName Xadder
TEXT 32 472 Left 0 !.tran 540e-9
TEXT -128 -112 Left 0 ;WARNING: in sum signal, _1 + 1 = _1 but it should be 0
