Version 4
SHEET 1 880 680
WIRE -144 -176 -224 -176
WIRE -80 -176 -144 -176
WIRE 112 -144 80 -144
WIRE -80 -128 -192 -128
WIRE 176 -96 80 -96
WIRE 224 -96 176 -96
WIRE -160 -80 -192 -80
WIRE -80 -80 -112 -80
WIRE 0 16 -112 16
WIRE 112 16 112 -144
WIRE 112 16 0 16
WIRE -112 96 -112 16
WIRE -80 96 -112 96
WIRE 352 112 288 112
WIRE 112 128 80 128
WIRE -80 144 -192 144
WIRE 352 144 256 144
WIRE 608 160 544 160
WIRE 176 176 80 176
WIRE 352 176 176 176
WIRE -160 192 -192 192
WIRE -80 192 -112 192
WIRE 224 208 224 -96
WIRE 352 208 224 208
WIRE 0 272 -112 272
WIRE 112 272 112 128
WIRE 112 272 0 272
WIRE 288 336 288 112
WIRE -112 352 -112 272
WIRE -80 352 -112 352
WIRE 176 384 80 384
WIRE 256 384 256 144
WIRE 256 384 176 384
WIRE -80 400 -192 400
WIRE 176 432 80 432
WIRE 224 432 176 432
WIRE 288 432 288 336
WIRE 288 432 272 432
WIRE -160 448 -192 448
WIRE -80 448 -112 448
FLAG -192 -128 A0
IOPIN -192 -128 In
FLAG -192 -80 B0
IOPIN -192 -80 In
FLAG -192 144 A1
IOPIN -192 144 In
FLAG -192 192 B1
IOPIN -192 192 In
FLAG -192 400 A2
IOPIN -192 400 In
FLAG -192 448 B2
IOPIN -192 448 In
FLAG -224 -176 0
FLAG 0 16 C1
FLAG 0 272 C2
FLAG 176 432 C3
FLAG 176 384 S2
FLAG 176 176 S1
FLAG 176 -96 S0
FLAG 608 160 S
IOPIN 608 160 Out
FLAG -144 -176 CARRY_IN
FLAG 288 336 B3
SYMBOL full_adder 0 -192 R0
SYMATTR InstName Xfa0
SYMBOL full_adder 0 80 R0
SYMATTR InstName Xfa1
SYMBOL full_adder 0 336 R0
SYMATTR InstName Xfa2
SYMBOL tsign4 448 112 R0
SYMATTR InstName X1
SYMBOL sti -144 -80 R0
SYMATTR InstName XnegB0
SYMBOL sti -144 192 R0
SYMATTR InstName XnegB1
SYMBOL sti -144 448 R0
SYMATTR InstName XnegB2
SYMBOL sti 240 432 R0
SYMATTR InstName XnegCarry
TEXT -208 -304 Left 0 ;Xfa1 could be replaced with a 1/2 adder\nbut leaving it a full-adder with carry-in at 0\nfor now, for future expandability
