Version 4
SHEET 1 880 680
WIRE -144 -176 -224 -176
WIRE -80 -176 -144 -176
WIRE 112 -144 80 -144
WIRE -80 -128 -192 -128
WIRE 176 -96 80 -96
WIRE 224 -96 176 -96
WIRE -160 -80 -192 -80
WIRE -96 -80 -112 -80
WIRE -80 -80 -96 -80
WIRE 0 16 -112 16
WIRE 112 16 112 -144
WIRE 112 16 0 16
WIRE -112 96 -112 16
WIRE -80 96 -112 96
WIRE 352 112 256 112
WIRE 112 128 80 128
WIRE -80 144 -192 144
WIRE 352 144 288 144
WIRE 608 160 544 160
WIRE 176 176 80 176
WIRE 352 176 176 176
WIRE -160 192 -192 192
WIRE -96 192 -112 192
WIRE -80 192 -96 192
WIRE 224 208 224 -96
WIRE 352 208 224 208
WIRE 0 272 -112 272
WIRE 112 272 112 128
WIRE 112 272 0 272
WIRE -112 352 -112 272
WIRE -80 352 -112 352
WIRE 176 384 80 384
WIRE 256 384 256 112
WIRE 256 384 176 384
WIRE -80 400 -192 400
WIRE 176 432 80 432
WIRE 288 432 288 144
WIRE 288 432 176 432
WIRE -160 448 -192 448
WIRE -96 448 -112 448
WIRE -80 448 -96 448
FLAG -192 -128 A0
IOPIN -192 -128 In
FLAG -192 -80 B0
IOPIN -192 -80 In
FLAG -192 144 A1
IOPIN -192 144 In
FLAG -192 192 B1
IOPIN -192 192 In
FLAG -192 400 A2
IOPIN -192 400 In
FLAG -192 448 B2
IOPIN -192 448 In
FLAG -224 -176 0
FLAG 0 16 C1
FLAG 0 272 C2
FLAG 176 432 S2
FLAG 176 384 C3
FLAG 176 176 S1
FLAG 176 -96 S0
FLAG 608 160 S
IOPIN 608 160 Out
FLAG -144 -176 CARRY_IN
FLAG -96 -80 _B0
FLAG -96 192 _B1
FLAG -96 448 _B2
SYMBOL full_adder 0 -192 R0
SYMATTR InstName fa0
SYMBOL full_adder 0 80 R0
SYMATTR InstName fa1
SYMBOL full_adder 0 336 R0
SYMATTR InstName fa2
SYMBOL tsign4 448 112 R0
WINDOW 0 -30 -28 Left 0
SYMATTR InstName sign
SYMBOL sti -144 -80 R0
SYMATTR InstName negB0
SYMBOL sti -144 192 R0
SYMATTR InstName negB1
SYMBOL sti -144 448 R0
SYMATTR InstName negB2
TEXT -208 -304 Left 0 ;fa1 could be replaced with a 1/2 adder\nbut leaving it a full-adder with carry-in at 0\nfor now, for future expandability
TEXT -472 400 Left 0 ;most significant
TEXT -472 -144 Left 0 ;least significant
