Version 4
SHEET 1 880 680
WIRE -16 -32 -176 -32
WIRE 288 -32 -16 -32
WIRE 368 -32 288 -32
WIRE 368 48 368 -32
WIRE 16 80 -32 80
WIRE 288 80 288 -32
WIRE 288 80 240 80
WIRE 368 128 320 128
WIRE 16 144 0 144
WIRE 320 144 320 128
WIRE 320 144 240 144
WIRE -96 208 -208 208
WIRE 16 208 -96 208
WIRE 272 208 240 208
WIRE 368 208 272 208
WIRE -16 272 -16 -32
WIRE 16 272 -16 272
WIRE 288 272 240 272
WIRE 368 272 368 208
WIRE -96 288 -96 208
WIRE -96 288 -160 288
WIRE 0 320 0 144
WIRE 272 320 272 208
WIRE 272 320 0 320
WIRE 288 320 288 272
WIRE -32 400 -32 80
WIRE -32 400 -176 400
WIRE 288 400 288 384
WIRE 288 400 -32 400
WIRE 368 400 368 336
WIRE 368 400 288 400
WIRE 400 400 368 400
FLAG -176 400 $G_Vss
FLAG -208 208 EXECUTE
IOPIN -208 208 Out
FLAG -176 -32 $G_Vdd
FLAG -208 288 FETCH
IOPIN -208 288 Out
SYMBOL Misc\\NE555 128 176 R0
SYMATTR InstName U1
SYMBOL cap 272 320 R0
SYMATTR InstName C1
SYMATTR Value 0.001µ
SYMBOL cap 352 272 R0
SYMATTR InstName C2
SYMATTR Value 0.01µ
SYMBOL res 352 112 R0
SYMATTR InstName R2
SYMATTR Value 3.3k
SYMBOL res 352 32 R0
SYMATTR InstName R1
SYMATTR Value 330
SYMBOL sti -176 288 M0
SYMATTR InstName negCLK
TEXT 48 464 Left 0 ;TODO: better frequency
