Version 4
SHEET 1 880 680
WIRE 112 -48 80 -48
WIRE 128 160 16 160
WIRE 272 160 176 160
FLAG 192 -48 0
FLAG 80 -48 EXECUTE
FLAG 16 160 EXECUTE
FLAG 272 160 FETCH
SYMBOL voltage 96 -48 M90
WINDOW 123 0 0 Left 0
WINDOW 39 0 0 Left 0
WINDOW 3 -78 187 VLeft 0
SYMATTR Value PULSE(-5 5 30u 1n 1n 30u 60u)
SYMATTR InstName VCLK
SYMBOL sti 144 160 R0
SYMATTR InstName invert_clk
TEXT -64 -240 Left 0 ;2-phase clock generator.\nCould be physically realized with 555 timer.
