Version 4
SHEET 1 880 680
WIRE 112 -48 80 -48
WIRE 192 176 144 176
WIRE 80 384 64 384
FLAG 192 -48 0
FLAG 80 -48 FETCH
FLAG 272 176 0
FLAG 144 176 DECODE
FLAG 160 384 0
FLAG 64 384 EXECUTE
SYMBOL voltage 96 -48 M90
WINDOW 123 0 0 Left 0
WINDOW 39 0 0 Left 0
WINDOW 3 -78 187 VLeft 0
SYMATTR Value PULSE(-5 5 3u 1n 1n 15u 30u)
SYMATTR InstName CLK_F1
SYMBOL voltage 176 176 M90
WINDOW 3 32 56 VTop 0
WINDOW 0 -32 56 VBottom 0
SYMATTR Value PULSE(-5 5 5u 100p 100p 15u 30u)
SYMATTR InstName CLK_D1
SYMBOL voltage 64 384 M90
WINDOW 3 32 56 VTop 0
WINDOW 0 -32 56 VBottom 0
SYMATTR Value PULSE(-5 5 10u 1n 1n 15u 30u)
SYMATTR InstName CLK_X1
