Version 4
SHEET 1 880 680
WIRE 304 160 208 160
FLAG 304 160 CLK
FLAG -64 112 $G_Vdd
FLAG -64 176 $G_Vss
SYMBOL tpower -64 144 R0
SYMATTR InstName X1
SYMBOL clock_gen 128 80 R0
SYMATTR InstName X2
TEXT 168 304 Left 0 !.tran 200u
