Version 4
SHEET 1 880 680
WIRE 304 160 256 160
WIRE 304 224 256 224
FLAG 304 160 FETCH
FLAG 304 224 EXECUTE
FLAG -48 176 $G_Vdd
FLAG -48 240 $G_Vss
SYMBOL clock_gen 176 112 R0
SYMATTR InstName cg
SYMBOL tpower -48 208 R0
SYMATTR InstName X1
TEXT 168 304 Left 0 !.tran 100u
