Version 4
SHEET 1 880 680
FLAG -320 -320 $G_Vdd
FLAG -320 -256 $G_Vss
FLAG -560 -112 M1i
FLAG -560 -80 M10
FLAG -560 -48 M11
FLAG -560 144 M2i
FLAG -560 176 M20
FLAG -560 208 M21
FLAG -560 432 M3i
FLAG -560 464 M30
FLAG -560 496 M31
FLAG -448 -80 M1q
FLAG -448 176 M2q
FLAG -448 464 M3q
FLAG -512 0 M1S
FLAG -512 256 M2S
FLAG -512 544 M3S
FLAG -160 -128 CU_In
FLAG -128 -128 CU_Out
FLAG -144 -16 tand1A
FLAG -144 16 tand1B
FLAG -144 96 tand2A
FLAG -144 128 tand2B
FLAG -144 224 tand3A
FLAG -144 256 tand3B
FLAG -64 0 tand1Y
FLAG -64 112 tand2Y
FLAG -64 240 tand3Y
FLAG -224 448 Din
FLAG -32 400 Dout_i
FLAG -32 448 Dout_0
FLAG -32 496 Dout_1
SYMBOL mux3-1 -496 -112 R0
SYMATTR InstName Xmux1
SYMBOL mux3-1 -496 144 R0
SYMATTR InstName Xmux2
SYMBOL mux3-1 -496 432 R0
SYMATTR InstName Xmux3
SYMBOL tcycle_up -144 -128 R0
SYMATTR InstName XCycle_Up
SYMBOL min -112 0 R0
SYMATTR InstName tand1
SYMBOL min -112 112 R0
SYMATTR InstName tand2
SYMBOL min -112 240 R0
SYMATTR InstName tand3
SYMBOL decoder1-3 -128 400 R0
SYMATTR InstName Decoder
SYMBOL tpower -320 -288 R0
SYMATTR InstName Xpower
