Version 4
SHEET 1 880 680
FLAG 16 96 CU_IN
FLAG 48 96 CU_OUT
SYMBOL tcycle_up 32 96 R0
SYMATTR InstName X1
