Version 4
SHEET 1 880 680
WIRE 224 112 80 112
WIRE 336 112 224 112
WIRE 592 112 384 112
WIRE 416 240 288 240
WIRE 512 256 496 256
WIRE 528 256 512 256
WIRE 592 256 576 256
WIRE 224 272 224 112
WIRE 288 272 288 240
WIRE 288 272 224 272
WIRE 320 272 288 272
WIRE 400 272 368 272
WIRE 416 272 400 272
WIRE 224 416 224 272
WIRE 336 416 224 416
WIRE 416 416 384 416
WIRE 448 416 416 416
WIRE 592 416 496 416
FLAG 80 112 IN
IOPIN 80 112 In
FLAG 592 416 OUT_1
IOPIN 592 416 Out
FLAG 592 112 OUT_i
IOPIN 592 112 Out
FLAG 592 256 OUT_0
IOPIN 592 256 Out
FLAG 416 416 NP
FLAG 400 272 NZsti
FLAG 512 256 NZtnand
SYMBOL pti 352 416 R0
SYMATTR InstName XPpti1
SYMBOL pti 464 416 R0
SYMATTR InstName XPpti2
SYMBOL nti 352 112 R0
SYMATTR InstName XintN
SYMBOL pti 544 256 R0
SYMATTR InstName XZpti
SYMBOL sti 336 272 R0
WINDOW 0 -1 30 Center 0
SYMATTR InstName XZsti
SYMBOL max 448 256 R0
SYMATTR InstName XZtnand
