Version 4
SHEET 1 880 680
WIRE 608 32 528 32
WIRE 336 80 -128 80
WIRE 608 80 528 80
WIRE 608 128 528 128
WIRE 304 144 -16 144
WIRE 304 192 96 192
WIRE -128 208 -128 80
WIRE -16 208 -16 144
WIRE 96 208 96 192
WIRE -16 288 -128 288
WIRE 96 288 -16 288
WIRE -16 336 -16 288
FLAG -16 336 0
FLAG -128 80 I0
FLAG -16 144 I1
FLAG 96 192 I2
FLAG -352 0 $G_Vdd
FLAG -352 64 $G_Vss
FLAG 608 32 IS_CMP
FLAG 608 80 IS_LWI
FLAG 608 128 IS_BE
SYMBOL voltage -128 192 R0
WINDOW 3 -92 177 Left 0
WINDOW 123 0 0 Left 0
WINDOW 39 0 0 Left 0
SYMATTR Value PWL(0 0 9n 0 10n -5 19n -5 20n 5)
SYMATTR InstName V1
SYMBOL voltage -16 192 R0
WINDOW 3 -205 205 Left 0
WINDOW 123 0 0 Left 0
WINDOW 39 0 0 Left 0
SYMATTR Value PWL(0 -5)
SYMATTR InstName V2
SYMBOL voltage 96 192 R0
WINDOW 3 -318 232 Left 0
WINDOW 123 0 0 Left 0
WINDOW 39 0 0 Left 0
SYMATTR Value PWL(0 0 9n 0 10n 5 19n 5 20n 0)
SYMATTR InstName V3
SYMBOL tpower -352 32 R0
SYMATTR InstName X3
SYMBOL decoder3-1 432 32 R0
SYMATTR InstName X1
TEXT -432 448 Left 0 !.tran 30n
