Version 4
SHEET 1 880 680
FLAG 48 144 DEC_IN
FLAG 240 96 OUT_i
FLAG 240 144 OUT_0
FLAG 240 192 OUT_1
SYMBOL decoder1-3 144 96 R0
SYMATTR InstName X1
