Version 4
SHEET 1 880 680
WIRE 224 112 80 112
WIRE 336 112 224 112
WIRE 592 112 384 112
WIRE 416 240 288 240
WIRE 528 256 496 256
WIRE 592 256 576 256
WIRE 224 272 224 112
WIRE 288 272 288 240
WIRE 288 272 224 272
WIRE 320 272 288 272
WIRE 416 272 368 272
WIRE 224 416 224 272
WIRE 336 416 224 416
WIRE 448 416 384 416
WIRE 592 416 496 416
FLAG 80 112 IN
IOPIN 80 112 In
FLAG 592 416 OUT_1
IOPIN 592 416 Out
FLAG 592 112 OUT_i
IOPIN 592 112 Out
FLAG 592 256 OUT_0
IOPIN 592 256 Out
SYMBOL pti 352 416 R0
SYMATTR InstName X5
SYMBOL pti 464 416 R0
SYMATTR InstName X6
SYMBOL nti 352 112 R0
SYMATTR InstName X1
SYMBOL pti 544 256 R0
SYMATTR InstName X4
SYMBOL sti 336 272 R0
WINDOW 0 -1 30 Center 0
SYMATTR InstName X2
SYMBOL max 448 256 R0
SYMATTR InstName X3
