Version 4
SHEET 1 880 680
WIRE 240 32 160 32
WIRE -32 80 -128 80
WIRE 240 80 160 80
WIRE 240 128 160 128
WIRE -128 208 -128 80
WIRE -128 336 -128 288
FLAG -128 336 0
FLAG -128 80 IN
FLAG -352 0 $G_Vdd
FLAG -352 64 $G_Vss
FLAG 240 32 IS_i
FLAG 240 80 IS_0
FLAG 240 128 IS_1
SYMBOL voltage -128 192 R0
WINDOW 3 -92 177 Left 0
WINDOW 123 0 0 Left 0
WINDOW 39 0 0 Left 0
SYMATTR Value PWL(0 0 9n 0 10n -5 19n -5 20n 5)
SYMATTR InstName V1
SYMBOL tpower -352 32 R0
SYMATTR InstName X3
SYMBOL decoder3-1 64 32 R0
SYMATTR InstName X1
TEXT -432 448 Left 0 !.tran 30n
