Version 4
SHEET 1 880 680
WIRE 192 -16 144 -16
WIRE 288 -16 256 -16
WIRE 144 176 144 -16
WIRE 144 176 80 176
WIRE 192 176 144 176
WIRE 288 176 256 176
WIRE 80 208 80 176
WIRE 80 320 80 288
FLAG 80 320 0
FLAG -272 256 $G_Vss
FLAG -272 192 $G_Vdd
FLAG 80 176 input
FLAG 288 -16 RD
FLAG 288 176 FD
SYMBOL voltage 80 192 R0
WINDOW 3 24 104 Invisible 0
WINDOW 0 -76 7 Left 0
SYMATTR Value -5V
SYMATTR InstName V1
SYMBOL tpower -272 224 R0
SYMATTR InstName U3
SYMBOL fd 208 160 R0
SYMATTR InstName Xfd
SYMBOL rd 208 -32 R0
SYMATTR InstName Xrd
TEXT -120 248 Left 0 !.dc V1 -5 5 0.1
