Version 4
SHEET 1 880 680
WIRE 64 80 32 80
WIRE 160 80 64 80
WIRE 144 96 144 32
WIRE 160 96 144 96
WIRE 320 96 240 96
WIRE 160 112 144 112
WIRE 416 112 400 112
WIRE 432 112 416 112
WIRE 416 160 416 112
WIRE 416 160 304 160
WIRE 144 176 144 112
WIRE 144 176 32 176
WIRE 320 192 320 128
WIRE 416 192 320 192
WIRE 304 208 304 160
WIRE 320 208 304 208
WIRE 144 224 144 176
WIRE 160 224 144 224
WIRE 416 224 416 192
WIRE 416 224 400 224
WIRE 432 224 416 224
WIRE 160 240 144 240
WIRE 320 240 240 240
WIRE 64 256 64 80
WIRE 80 256 64 256
WIRE 160 256 128 256
WIRE 144 288 144 240
FLAG 32 80 D
IOPIN 32 80 In
FLAG 32 176 CLK
IOPIN 32 176 In
FLAG 432 112 Q
IOPIN 432 112 Out
FLAG 432 224 _Q
IOPIN 432 224 Out
FLAG 144 32 X
IOPIN 144 32 In
FLAG 144 288 Y
IOPIN 144 288 In
SYMBOL sti 96 256 R0
WINDOW 0 -13 -32 Left 0
SYMATTR InstName X5
SYMBOL tnand 352 112 R0
SYMATTR InstName X1
SYMBOL tnand 352 224 R0
SYMATTR InstName X2
SYMBOL tnand3 192 96 R0
SYMATTR InstName X6
SYMBOL tnand3 192 240 R0
SYMATTR InstName X3
TEXT -160 -32 Left 0 ;Experimental attempt at a D-flip flop with additional inputs. Not well-tested
