Version 4
SHEET 1 880 680
WIRE 112 112 0 112
WIRE 176 112 112 112
WIRE 400 112 336 112
WIRE 416 112 400 112
WIRE 176 160 112 160
WIRE 400 160 352 160
WIRE 416 160 400 160
WIRE 0 208 0 112
WIRE 112 208 112 160
WIRE 64 288 0 288
WIRE 112 288 64 288
WIRE 64 320 64 288
FLAG 400 160 _Q
FLAG 400 112 Q
FLAG 64 320 0
FLAG 112 112 D
FLAG 112 160 CLK
SYMBOL dtflop 256 64 R0
SYMATTR InstName U1
SYMBOL voltage 112 192 R0
WINDOW 123 0 0 Left 0
WINDOW 39 0 0 Left 0
SYMATTR InstName V1
SYMATTR Value PULSE(-5 5 0 1p 1p 10n 20n)
SYMBOL voltage 0 192 R0
SYMATTR InstName V2
SYMATTR Value -5V
TEXT -32 344 Left 0 !.tran 100n
