Version 4
SHEET 1 880 680
WIRE 112 96 -144 96
WIRE 112 144 112 96
WIRE 144 144 112 144
WIRE 368 144 304 144
WIRE -128 160 -256 160
WIRE -128 176 -128 160
WIRE -112 176 -128 176
WIRE 32 192 -32 192
WIRE 144 192 64 192
WIRE 368 192 320 192
WIRE -256 208 -256 160
WIRE -256 208 -288 208
WIRE -208 208 -256 208
WIRE -112 208 -160 208
FLAG -144 96 D
IOPIN -144 96 In
FLAG -288 208 CLK
IOPIN -288 208 In
FLAG 368 144 Q
IOPIN 368 144 Out
FLAG 368 192 _Q
IOPIN 368 192 Out
SYMBOL dtflop 224 96 R0
SYMATTR InstName X1
SYMBOL tnand -80 192 R0
SYMATTR InstName X3
SYMBOL sti -192 208 R0
SYMATTR InstName X2
SYMBOL tcycle_up 48 192 R0
SYMATTR InstName X4
TEXT -80 16 Left 0 ;UNTESTED
TEXT -176 328 Left 0 ;5 V with pulses of ~0 V
TEXT 32 288 Left 0 ;Require -5 V with pulses of +5 V for CLK\n       but this is -5 V with 0 V pulses
LINE Normal -288 288 -320 288
LINE Normal -288 256 -288 288
LINE Normal -256 256 -288 256
LINE Normal 112 272 96 272
LINE Normal 112 240 112 272
LINE Normal 128 240 112 240
LINE Normal 128 272 128 240
LINE Normal 144 272 128 272
LINE Normal -32 208 -64 320
LINE Normal 96 208 80 272
