Version 4
SHEET 1 880 680
WIRE 112 96 -144 96
WIRE 112 144 112 96
WIRE 144 144 112 144
WIRE 368 144 304 144
WIRE -48 160 -176 160
WIRE -48 176 -48 160
WIRE -32 176 -48 176
WIRE 64 192 48 192
WIRE 144 192 112 192
WIRE 368 192 320 192
WIRE -176 208 -176 160
WIRE -176 208 -208 208
WIRE -128 208 -176 208
WIRE -32 208 -80 208
FLAG -144 96 D
IOPIN -144 96 In
FLAG -208 208 CLK
IOPIN -208 208 In
FLAG 368 144 Q
IOPIN 368 144 Out
FLAG 368 192 _Q
IOPIN 368 192 Out
SYMBOL dtflop 224 96 R0
SYMATTR InstName X1
SYMBOL tnand 0 192 R0
SYMATTR InstName X3
SYMBOL sti 80 192 R0
SYMATTR InstName X6
SYMBOL sti -112 208 R0
SYMATTR InstName X2
TEXT -80 16 Left 0 ;UNTESTED
LINE Normal -64 288 -96 288
LINE Normal -64 256 -64 288
LINE Normal -32 256 -64 256
LINE Normal 112 288 96 288
LINE Normal 112 256 112 288
LINE Normal 128 256 112 256
LINE Normal 128 288 128 256
LINE Normal 144 288 128 288
