Version 4
SHEET 1 880 680
WIRE -32 144 -256 144
WIRE 176 144 128 144
WIRE 240 144 176 144
WIRE 512 144 400 144
WIRE -32 192 -80 192
WIRE 240 192 208 192
WIRE 512 192 416 192
WIRE -80 240 -80 192
WIRE -80 336 -80 288
WIRE -80 336 -272 336
WIRE 208 336 208 192
WIRE 208 336 -80 336
FLAG -256 144 D
IOPIN -256 144 In
FLAG -272 336 CLK
IOPIN -272 336 In
FLAG 512 144 Q
IOPIN 512 144 Out
FLAG 512 192 _Q
IOPIN 512 192 Out
FLAG -80 192 _CLK
FLAG 176 144 between
SYMBOL dtflop 48 96 R0
SYMATTR InstName Master
SYMBOL dtflop 320 96 R0
SYMATTR InstName Slave
SYMBOL sti -80 272 R270
SYMATTR InstName XstiCLK
