Version 4
SHEET 1 1664 680
WIRE 112 112 0 112
WIRE 176 112 112 112
WIRE 400 112 336 112
WIRE 416 112 400 112
WIRE 176 160 112 160
WIRE 0 208 0 112
WIRE 112 208 112 160
WIRE 64 288 0 288
WIRE 112 288 64 288
WIRE 64 320 64 288
FLAG 400 112 Q
FLAG 64 320 0
FLAG 112 112 D
FLAG 112 160 CLK
FLAG -320 224 $G_Vdd
FLAG -320 288 $G_Vss
SYMBOL voltage 112 192 R0
WINDOW 123 0 0 Left 0
WINDOW 39 0 0 Left 0
WINDOW 0 2 14 Left 0
SYMATTR InstName Vclk
SYMATTR Value PULSE(-5 5 0 1p 1p 10n 20n)
SYMBOL voltage 0 192 R0
WINDOW 3 -45 164 Left 0
WINDOW 123 0 0 Left 0
WINDOW 39 0 0 Left 0
SYMATTR Value PWL(0 0 1n 0 5n -5 8n -5 9n 0 10n 0 11n 5 21n 5 22n 0 24n 0 25n -5 34n -5 35n -5 40n -5 41n -5 42n 0 43n 5 44n 5 45n -5 46n 0 47n -5 48n 0)
SYMATTR InstName Vd
SYMBOL tpower -320 256 R0
SYMATTR InstName X1
SYMBOL dtflop-msmo 256 64 R0
SYMATTR InstName flipflop
TEXT 216 248 Left 0 !.tran 50n
