Version 4
SHEET 1 880 680
WIRE 112 112 0 112
WIRE 176 112 112 112
WIRE 400 112 336 112
WIRE 416 112 400 112
WIRE 176 160 112 160
WIRE 400 160 352 160
WIRE 416 160 400 160
WIRE 0 208 0 112
WIRE 112 208 112 160
WIRE 208 224 208 208
WIRE 256 224 208 224
WIRE 288 224 288 208
WIRE 288 224 256 224
WIRE 256 272 256 224
WIRE 64 288 0 288
WIRE 112 288 64 288
WIRE 64 320 64 288
FLAG 400 160 _Q
FLAG 400 112 Q
FLAG 64 320 0
FLAG 112 112 D
FLAG 112 160 CLK
FLAG -320 224 $G_Vdd
FLAG -320 288 $G_Vss
FLAG 256 272 $G_Vdd
SYMBOL voltage 112 192 R0
WINDOW 123 0 0 Left 0
WINDOW 39 0 0 Left 0
WINDOW 3 33 59 Left 0
SYMATTR InstName V1
SYMATTR Value PULSE(-5 5 0 1p 1p 10n 20n)
SYMBOL voltage 0 192 R0
WINDOW 3 -138 207 Left 0
WINDOW 123 0 0 Left 0
WINDOW 39 0 0 Left 0
SYMATTR Value PWL(0 0 10n 0 11n 5 17n 5 18n 0 24n 0 25n -5 34n -5 35n 5)
SYMATTR InstName V2
SYMBOL tpower -320 256 R0
SYMATTR InstName X1
SYMBOL dtflop2 256 64 R0
SYMATTR InstName X2
TEXT -152 320 Left 0 !.tran 50n
