Version 4
SHEET 1 1372 680
WIRE 112 112 0 112
WIRE 176 112 112 112
WIRE 400 112 336 112
WIRE 416 112 400 112
WIRE 176 160 112 160
WIRE 400 160 352 160
WIRE 416 160 400 160
WIRE 0 208 0 112
WIRE 112 208 112 160
WIRE 64 288 0 288
WIRE 112 288 64 288
WIRE 208 288 208 208
WIRE 288 288 288 208
WIRE 64 320 64 288
WIRE 208 384 208 288
WIRE 288 384 288 288
WIRE 208 496 208 464
WIRE 288 496 288 464
FLAG 400 160 _Q
FLAG 400 112 Q
FLAG 64 320 0
FLAG 112 112 D
FLAG 112 160 CLK
FLAG -320 224 $G_Vdd
FLAG -320 288 $G_Vss
FLAG 208 288 X
FLAG 288 288 Y
FLAG 208 496 0
FLAG 288 496 0
SYMBOL voltage 112 192 R0
WINDOW 123 0 0 Left 0
WINDOW 39 0 0 Left 0
WINDOW 3 33 54 Left 0
SYMATTR Value PULSE(-5 5 0 1p 1p 10n 20n)
SYMATTR InstName V1
SYMBOL voltage 0 192 R0
WINDOW 3 -148 161 Left 0
WINDOW 123 0 0 Left 0
WINDOW 39 0 0 Left 0
SYMATTR Value PWL(0 0 10n 0 11n 5 17n 5 18n 0 24n 0 25n -5 34n -5 35n 5 49n 5 50n 0 60n 0 61n 5 67n 5 68n 0 72n 0 75n -5 84n -5 85n -5)
SYMATTR InstName V2
SYMBOL tpower -320 256 R0
SYMATTR InstName X1
SYMBOL dtflop2 256 64 R0
SYMATTR InstName X2
SYMATTR Description Trinary D-type flip-flop, experimental. UNTESTED.
SYMBOL voltage 208 368 R0
WINDOW 3 -293 97 Left 0
WINDOW 123 0 0 Left 0
WINDOW 39 0 0 Left 0
SYMATTR InstName V3
SYMATTR Value PWL(0 5 50n 5 51n 5)
SYMBOL voltage 288 368 R0
SYMATTR InstName V4
SYMATTR Value PWL(0 5 50n 5 51n -5)
TEXT -152 320 Left 0 !.tran 100n
