Version 4
SHEET 1 880 680
WIRE 64 80 32 80
WIRE 160 80 64 80
WIRE 272 96 240 96
WIRE 320 96 272 96
WIRE 160 112 144 112
WIRE 416 112 400 112
WIRE 432 112 416 112
WIRE 320 128 304 128
WIRE 144 176 144 112
WIRE 144 176 32 176
WIRE 304 208 416 112
WIRE 320 208 304 208
WIRE 144 224 144 176
WIRE 160 224 144 224
WIRE 416 224 304 128
WIRE 416 224 400 224
WIRE 432 224 416 224
WIRE 272 240 240 240
WIRE 320 240 272 240
WIRE 64 256 64 80
WIRE 80 256 64 256
WIRE 144 256 128 256
WIRE 160 256 144 256
FLAG 32 80 D
IOPIN 32 80 In
FLAG 32 176 CLK
IOPIN 32 176 In
FLAG 432 112 Q
IOPIN 432 112 Out
FLAG 432 224 _Q
IOPIN 432 224 Out
FLAG 272 96 Q_storage
FLAG 272 240 _Q_storage
FLAG 144 256 _D
SYMBOL tnand 352 112 R0
SYMATTR InstName Xlatch
SYMBOL tnand 352 224 R0
SYMATTR InstName _Xlatch
SYMBOL tnand 192 96 R0
SYMATTR InstName Xgatetop
SYMBOL tnand 192 240 R0
SYMATTR InstName Xgatebot
SYMBOL sti 96 256 R0
SYMATTR InstName XstiD
