Version 4
SHEET 1 880 680
WIRE 320 -112 272 -112
WIRE 320 -96 320 -112
WIRE 400 -80 336 -80
WIRE 224 16 160 16
WIRE 320 16 320 -64
WIRE 320 16 256 16
WIRE 160 112 160 16
WIRE 320 112 320 16
WIRE 240 176 240 32
WIRE 240 176 32 176
WIRE 336 176 240 176
WIRE 400 176 400 -80
WIRE 400 176 384 176
WIRE 160 208 160 160
WIRE 320 208 320 160
WIRE 320 208 160 208
WIRE 320 256 320 208
WIRE 240 272 240 176
WIRE 304 272 240 272
WIRE 224 320 160 320
WIRE 320 320 320 288
WIRE 320 320 256 320
WIRE 400 336 400 176
WIRE 400 336 240 336
WIRE 160 352 160 320
WIRE 320 352 320 320
WIRE 160 432 160 400
WIRE 320 432 320 400
WIRE 320 432 160 432
WIRE 368 432 320 432
FLAG 272 -112 D
IOPIN 272 -112 In
FLAG 368 432 Q
IOPIN 368 432 Out
FLAG 32 176 C
IOPIN 32 176 In
SYMBOL sti 160 144 R270
SYMATTR InstName X1
SYMBOL sti 320 128 R90
SYMATTR InstName X2
SYMBOL sti 320 368 M90
SYMATTR InstName X3
SYMBOL sti 160 384 M270
SYMATTR InstName X4
SYMBOL tg 240 16 R0
SYMATTR InstName X5
SYMBOL tg 320 272 M270
SYMATTR InstName X6
SYMBOL tg 320 -80 M90
SYMATTR InstName X7
SYMBOL tg 240 320 R0
SYMATTR InstName X8
SYMBOL sti 352 176 R0
SYMATTR InstName X9
