Version 4
SHEET 1 880 680
WIRE 320 -112 272 -112
WIRE 320 -96 320 -112
WIRE 400 -80 336 -80
WIRE 320 0 320 -64
WIRE 224 16 160 16
WIRE 320 16 320 0
WIRE 320 16 256 16
WIRE 160 80 160 16
WIRE 320 80 320 16
WIRE 240 144 240 32
WIRE 240 144 32 144
WIRE 336 144 240 144
WIRE 400 144 400 -80
WIRE 400 144 384 144
WIRE 160 176 160 128
WIRE 192 176 160 176
WIRE 320 176 320 128
WIRE 320 176 192 176
WIRE 320 192 320 176
WIRE 320 224 320 192
WIRE 240 240 240 144
WIRE 304 240 240 240
WIRE 224 288 160 288
WIRE 320 288 320 256
WIRE 320 288 256 288
WIRE 400 304 400 144
WIRE 400 304 240 304
WIRE 160 320 160 288
WIRE 320 320 320 288
WIRE 160 400 160 368
WIRE 320 400 320 368
WIRE 320 400 160 400
WIRE 368 400 320 400
FLAG 272 -112 D
IOPIN 272 -112 In
FLAG 368 400 Q
IOPIN 368 400 Out
FLAG 32 144 C
IOPIN 32 144 In
FLAG 400 144 _C
FLAG 320 0 tg_D
FLAG 160 16 _Q_master
FLAG 160 288 _Q_slave
FLAG 192 176 Q_master
FLAG 320 192 tg_master
FLAG 320 288 tg_slave
SYMBOL sti 160 112 R270
SYMATTR InstName X2
SYMBOL sti 320 96 R90
WINDOW 0 -21 -30 Center 0
SYMATTR InstName X4
SYMBOL sti 320 336 M90
SYMATTR InstName X3
SYMBOL sti 160 352 M270
SYMATTR InstName X1
SYMBOL tg 240 16 R0
SYMATTR InstName XB
SYMBOL tg 320 240 M270
SYMATTR InstName XC
SYMBOL tg 320 -80 M90
SYMATTR InstName XA
SYMBOL tg 240 288 R0
SYMATTR InstName XD
SYMBOL sti 352 144 R0
SYMATTR InstName X5
TEXT 320 -120 Left 0 ;1
TEXT 320 -48 Left 0 ;2
TEXT 360 -80 Left 0 ;13
TEXT 264 16 Left 0 ;3
TEXT 192 16 Left 0 ;4
TEXT 232 56 Left 0 ;5
TEXT 280 240 Left 0 ;6
TEXT 312 208 Left 0 ;9
TEXT 312 272 Left 0 ;8
TEXT 224 312 Left 0 ;12
TEXT 264 288 Left 0 ;11
TEXT 192 288 Left 0 ;10
TEXT 360 -32 Left 0 ;Pin numbers \nof CD4016
LINE Normal 368 -64 384 -48
