Version 4
SHEET 1 880 680
WIRE 320 96 256 96
WIRE 96 112 16 112
WIRE 320 144 272 144
WIRE 16 160 16 112
WIRE 16 288 16 240
FLAG 16 288 0
FLAG 320 96 Q
FLAG 320 144 _Q
FLAG 16 112 D
FLAG -112 64 $G_Vdd
FLAG -112 128 $G_Vss
SYMBOL voltage 16 144 R0
WINDOW 123 0 0 Left 0
WINDOW 39 0 0 Left 0
SYMATTR InstName V1
SYMATTR Value PULSE(-5 5 0 1p 1p 10n 20n)
SYMBOL dtlatch 176 48 R0
SYMATTR InstName X1
SYMBOL tpower -112 96 R0
SYMATTR InstName X2
TEXT 64 304 Left 0 !.tran 40n
