Version 4
SHEET 1 880 680
WIRE 96 64 48 64
WIRE 128 64 96 64
WIRE 224 64 160 64
WIRE 304 80 272 80
WIRE 336 80 304 80
WIRE 224 96 192 96
WIRE 192 112 192 96
WIRE 288 112 192 112
WIRE 304 144 304 80
WIRE 304 144 192 144
WIRE 192 160 192 144
WIRE 224 160 192 160
WIRE 288 176 288 112
WIRE 288 176 272 176
WIRE 336 176 288 176
WIRE 96 192 96 64
WIRE 224 192 96 192
FLAG 48 64 D
IOPIN 48 64 In
FLAG 336 80 Q
IOPIN 336 80 Out
FLAG 336 176 _Q
IOPIN 336 176 Out
SYMBOL tnand 240 80 R0
SYMATTR InstName X1
SYMBOL tnand 240 176 R0
SYMATTR InstName X2
SYMBOL tinv 144 64 R0
SYMATTR InstName X3
