Version 4
SHEET 1 880 708
WIRE 192 -32 144 -32
WIRE 224 -32 192 -32
WIRE 496 0 384 0
WIRE -48 16 -112 16
WIRE 224 16 -48 16
WIRE 496 48 384 48
WIRE 224 64 48 64
WIRE -112 288 -112 16
WIRE 48 288 48 64
WIRE -112 400 -112 368
WIRE -16 400 -112 400
WIRE 48 400 48 368
WIRE 48 400 -16 400
WIRE -16 432 -16 400
FLAG -288 176 $G_Vss
FLAG -288 112 $G_Vdd
FLAG -16 432 0
FLAG -48 16 X
FLAG 48 64 Y
FLAG 496 0 CO
FLAG 496 48 S
FLAG 192 -32 CI
FLAG 144 -32 0
SYMBOL tpower -288 144 R0
SYMATTR InstName X1
SYMBOL voltage -112 272 R0
WINDOW 3 -171 104 Left 0
WINDOW 123 0 0 Left 0
WINDOW 39 0 0 Left 0
SYMATTR Value PWL file=INPUT_A.txt
SYMATTR InstName VA
SYMBOL voltage 48 272 R0
WINDOW 3 -86 103 Left 0
WINDOW 123 0 0 Left 0
WINDOW 39 0 0 Left 0
SYMATTR Value PWL file=INPUT_B.txt
SYMATTR InstName VB
SYMBOL full_adder 304 -48 R0
SYMATTR InstName FA
TEXT 32 472 Left 0 !.tran 540e-9
