Version 4
SHEET 1 880 680
WIRE -32 -48 -96 -48
WIRE 48 -48 32 -48
WIRE 48 -16 48 -48
WIRE 112 -16 48 -16
WIRE 304 16 224 16
WIRE 112 48 48 48
WIRE -96 80 -96 -48
WIRE -32 80 -96 80
WIRE 48 80 48 48
WIRE 48 80 32 80
WIRE -96 160 -96 80
WIRE -96 160 -208 160
WIRE -96 256 -96 160
WIRE 16 256 -96 256
WIRE 96 256 48 256
WIRE 96 288 96 256
WIRE 112 288 96 288
WIRE -96 320 -96 256
WIRE 112 320 -96 320
WIRE 304 320 224 320
WIRE 112 352 96 352
WIRE -96 400 -96 320
WIRE 16 400 -96 400
WIRE 96 400 96 352
WIRE 96 400 48 400
WIRE 160 400 160 96
WIRE 160 448 160 400
WIRE 160 448 -208 448
FLAG 112 16 0
FLAG 304 16 C
FLAG 304 320 S
FLAG -208 160 A
FLAG -208 448 B
SYMBOL mux3-1 176 -16 R0
WINDOW 0 2 -68 Center 0
SYMATTR InstName Xmux_carry1
SYMBOL mux3-1 176 288 R0
SYMATTR InstName Xmux_sum1
SYMBOL tcycle_down 32 256 R0
SYMATTR InstName Xcd
SYMBOL shift_up 32 400 R0
SYMATTR InstName Xsu
SYMBOL rd -16 -32 M180
WINDOW 0 2 -17 Left 0
SYMATTR InstName Xrd
SYMBOL fd -16 64 R0
WINDOW 0 5 -14 Left 0
SYMATTR InstName Xfd
