Version 4
SHEET 1 880 680
FLAG 176 160 INV_IN1
FLAG 208 144 PTI1
FLAG 224 160 STI1
FLAG 208 176 NTI1
FLAG 208 240 PTI2
FLAG 224 256 STI2
FLAG 208 272 NTI2
FLAG 176 256 INV_IN2
SYMBOL tinv 192 160 R0
SYMATTR InstName X1
SYMBOL tinv 192 256 R0
SYMATTR InstName X2
