Version 4
SHEET 1 880 680
FLAG 16 96 DEC_IN
FLAG 208 48 OUT_i
FLAG 208 96 OUT_0
FLAG 208 144 OUT_1
FLAG 16 288 CU_IN
FLAG 48 288 CU_OUT
FLAG 336 224 TAND_1A
FLAG 336 256 TAND_1B
FLAG 416 240 TAND_1Y
FLAG 336 336 TAND_2A
FLAG 336 368 TAND_2B
FLAG 416 352 TAND_2Y
FLAG 336 448 TAND_3A
FLAG 336 480 TAND_3B
FLAG 416 464 TAND_3Y
FLAG 432 16 $G_Vdd
FLAG 432 80 $G_Vss
FLAG -256 32 PTI1
FLAG -240 48 STI1
FLAG -256 64 NTI1
FLAG -288 48 INV1_IN
FLAG -256 112 PTI2
FLAG -240 128 STI2
FLAG -256 144 NTI2
FLAG -256 192 PTI3
FLAG -240 208 STI3
FLAG -256 224 NTI3
FLAG -256 272 PTI4
FLAG -240 288 STI4
FLAG -256 304 NTI4
FLAG -288 128 INV2_IN
FLAG -288 208 INV3_IN
FLAG -288 288 INV4_IN
FLAG -672 48 BUF1_IN
FLAG -624 48 BUF1_OUT
FLAG -672 144 BUF2_IN
FLAG -624 144 BUF2_OUT
FLAG -672 240 BUF3_IN
FLAG -624 240 BUF3_OUT
FLAG -624 336 BUF4_OUT
FLAG -672 336 BUF4_IN
SYMBOL decoder1-3 112 48 R0
WINDOW 0 -51 -37 Left 0
SYMATTR InstName DECODER
SYMBOL tpower 432 48 R0
SYMATTR InstName X2
SYMBOL tcycle_up 32 288 R0
SYMATTR InstName CYCLE_UP
SYMBOL min 368 240 R0
SYMATTR InstName TAND_1
SYMBOL min 368 352 R0
SYMATTR InstName TAND_2
SYMBOL min 368 464 R0
SYMATTR InstName TAND_3
SYMBOL tinv -272 48 R0
SYMATTR InstName X7
SYMBOL tinv -272 128 R0
SYMATTR InstName X8
SYMBOL tinv -272 208 R0
SYMATTR InstName X9
SYMBOL tinv -272 288 R0
SYMATTR InstName X10
SYMBOL tbuf -656 48 R0
SYMATTR InstName BUF1
SYMBOL tbuf -656 144 R0
SYMATTR InstName BUF2
SYMBOL tbuf -656 240 R0
SYMATTR InstName BUF3
SYMBOL tbuf -656 336 R0
SYMATTR InstName BUF4
