Version 4
SHEET 1 880 680
FLAG 16 96 DEC_IN
FLAG 208 48 OUT_i
FLAG 208 96 OUT_0
FLAG 208 144 OUT_1
FLAG 16 288 CU_IN
FLAG 48 288 CU_OUT
FLAG 336 224 TAND_1A
FLAG 336 256 TAND_1B
FLAG 416 240 TAND_1Y
FLAG 336 336 TAND_2A
FLAG 336 368 TAND_2B
FLAG 416 352 TAND_2Y
FLAG 336 448 TAND_3A
FLAG 336 480 TAND_3B
FLAG 416 464 TAND_3Y
FLAG 432 16 $G_Vdd
FLAG 432 80 $G_Vss
FLAG -256 32 PTI1
FLAG -240 48 STI1
FLAG -256 64 NTI1
FLAG -288 48 INV1_IN
FLAG -256 112 PTI2
FLAG -240 128 STI2
FLAG -256 144 NTI2
FLAG -256 192 PTI3
FLAG -240 208 STI3
FLAG -256 224 NTI3
FLAG -256 272 PTI4
FLAG -240 288 STI4
FLAG -256 304 NTI4
FLAG -256 352 PTI5
FLAG -240 368 STI5
FLAG -256 384 NTI5
FLAG -256 432 PTI6
FLAG -240 448 STI6
FLAG -256 464 NTI6
FLAG -256 512 PTI7
FLAG -240 528 STI7
FLAG -256 544 NTI7
FLAG -288 128 INV2_IN
FLAG -288 208 INV3_IN
FLAG -288 288 INV4_IN
FLAG -288 368 INV5_IN
FLAG -288 448 INV6_IN
FLAG -288 528 INV7_IN
SYMBOL decoder1-3 112 48 R0
SYMATTR InstName X1
SYMBOL tpower 432 48 R0
SYMATTR InstName X2
SYMBOL tcycle_up 32 288 R0
SYMATTR InstName X3
SYMBOL min 368 240 R0
SYMATTR InstName X4
SYMBOL min 368 352 R0
SYMATTR InstName X5
SYMBOL min 368 464 R0
SYMATTR InstName X6
SYMBOL tinv -272 48 R0
SYMATTR InstName X7
SYMBOL tinv -272 128 R0
SYMATTR InstName X8
SYMBOL tinv -272 208 R0
SYMATTR InstName X9
SYMBOL tinv -272 288 R0
SYMATTR InstName X10
SYMBOL tinv -272 368 R0
SYMATTR InstName X11
SYMBOL tinv -272 448 R0
SYMATTR InstName X12
SYMBOL tinv -272 528 R0
SYMATTR InstName X13
