Version 4
SHEET 1 880 680
WIRE 384 0 288 0
WIRE 384 48 288 48
WIRE -368 80 -368 -32
WIRE -320 80 -368 80
WIRE 32 96 -80 96
WIRE 384 96 288 96
WIRE -384 112 -416 112
WIRE -320 112 -384 112
WIRE -624 144 -640 144
WIRE -528 144 -592 144
WIRE -640 256 -640 144
WIRE -384 256 -384 112
WIRE -384 256 -640 256
WIRE -480 304 -480 192
FLAG -368 -32 _RESET
FLAG -352 352 $G_Vdd
FLAG -352 416 $G_Vss
FLAG -304 -32 $G_Vdd
FLAG -528 80 0
FLAG -528 112 0
FLAG -144 432 0
FLAG -144 352 CLK
FLAG -240 144 CLK
FLAG -480 304 PC_CTRL
FLAG -544 304 $G_Vdd
SYMBOL swrom 80 0 R0
SYMATTR InstName X1
SYMBOL dtflop -160 48 R0
SYMATTR InstName X2
SYMBOL mux3-1 -464 80 R0
SYMATTR InstName X3
SYMBOL tcycle_up -608 144 R0
SYMATTR InstName X4
SYMBOL max -288 96 R0
SYMATTR InstName X5
SYMBOL tpower -352 384 R0
SYMATTR InstName X6
SYMBOL Misc\\jumper -336 -96 R0
SYMATTR InstName X7
SYMBOL voltage -144 336 R0
WINDOW 123 0 0 Left 0
WINDOW 39 0 0 Left 0
SYMATTR InstName V1
SYMATTR Value PULSE(-5 5 0 1n 1n 10n 20n)
SYMBOL Misc\\jumper -512 240 R0
SYMATTR InstName X8
TEXT -642 574 Left 0 !.tran 40n
