Version 4
SHEET 1 1652 1000
WIRE -544 48 -688 48
WIRE -416 48 -544 48
WIRE -128 48 -384 48
WIRE 416 80 320 80
WIRE 496 80 416 80
WIRE 416 128 320 128
WIRE -336 176 -448 176
WIRE -128 176 -128 48
WIRE -128 176 -176 176
WIRE -32 176 -128 176
WIRE 64 176 -32 176
WIRE 416 176 320 176
WIRE -688 208 -688 48
WIRE -592 208 -688 208
WIRE -336 224 -416 224
WIRE -592 240 -704 240
WIRE -448 240 -448 176
WIRE -448 240 -480 240
WIRE -416 304 -416 224
WIRE 160 320 80 320
WIRE 160 368 80 368
WIRE 496 368 496 80
WIRE 496 368 352 368
WIRE -544 400 -544 320
WIRE 160 416 80 416
WIRE -544 480 -544 400
WIRE -544 592 -544 560
WIRE 64 592 16 592
WIRE -752 624 -752 576
WIRE -144 624 -240 624
WIRE 64 624 16 624
WIRE -1104 640 -1104 608
WIRE -144 656 -240 656
WIRE 64 656 16 656
WIRE -752 752 -752 704
WIRE -288 752 -320 752
WIRE -1104 768 -1104 720
WIRE -144 768 -208 768
WIRE -288 784 -320 784
WIRE -912 896 -912 864
FLAG -768 16 $G_Vss
FLAG -32 176 ADDRESS
FLAG -1104 768 0
FLAG -768 -48 $G_Vdd
FLAG 416 80 I0_opcode
FLAG 416 128 I1
FLAG 416 176 I2
FLAG -592 272 0
FLAG -544 48 ADDR_PLUS_1
FLAG -704 240 $G_Vss
FLAG -544 592 0
FLAG -544 400 CTRL_PC
FLAG 80 320 IS_CMP
FLAG 80 368 IS_LWI
FLAG 80 416 IS_BE
FLAG 64 592 A0
FLAG 64 624 A1
FLAG 64 656 A2
FLAG -144 592 0
FLAG -240 624 I1
FLAG -240 656 I2
FLAG -320 752 IS_LWI
FLAG -1104 608 FETCH
FLAG -416 304 FETCH
FLAG -752 752 0
FLAG -752 576 DECODE
FLAG -912 976 0
FLAG -912 864 EXECUTE
FLAG -320 784 DECODE
SYMBOL tpower -768 -16 R0
SYMATTR InstName X2
SYMBOL tcycle_up -400 48 M0
SYMATTR InstName X4
SYMBOL voltage -1104 624 R0
WINDOW 123 0 0 Left 0
WINDOW 39 0 0 Left 0
SYMATTR InstName CLK_F
SYMATTR Value PULSE(-5 5 3u 1n 1n 15u 30u)
SYMBOL dtflop-et-ms -256 128 R0
SYMATTR InstName PROGRAM_COUNTER
SYMBOL mux3-1 -528 208 R0
SYMATTR InstName X5
SYMBOL voltage -544 464 R0
WINDOW 123 0 0 Left 0
WINDOW 39 0 0 Left 0
SYMATTR InstName V1
SYMATTR Value PWL(0 0 5u 0 5.1u -5)
SYMBOL swrom-fast 112 80 R0
SYMATTR InstName X1
SYMBOL decoder3-1 256 320 M0
SYMATTR InstName X3
SYMBOL trit_reg3 -64 544 R0
SYMATTR InstName REGISTER_A
SYMBOL voltage -752 608 R0
SYMATTR InstName CLK_D
SYMATTR Value PULSE(-5 5 5u 1n 1n 15u 30u)
SYMBOL voltage -912 880 R0
SYMATTR InstName CLK_X
SYMATTR Value PULSE(-5 5 10u 1n 1n 15u 30u)
SYMBOL min -256 768 R0
SYMATTR InstName X6
TEXT -200 336 Left 0 !.tran 80u
TEXT -864 208 Left 0 ;Reset address
TEXT -416 704 Left 0 ;Trigger on falling edge
TEXT 64 240 Left 0 !.include ../asm/lwitest.sp
