Version 4
SHEET 1 2116 2028
WIRE 1024 -1216 992 -1216
WIRE 1104 -1216 1024 -1216
WIRE 1040 -1184 992 -1184
WIRE 1104 -1184 1040 -1184
WIRE 1056 -1152 992 -1152
WIRE 1104 -1152 1056 -1152
WIRE -544 -1120 -688 -1120
WIRE -416 -1120 -544 -1120
WIRE -128 -1120 -384 -1120
WIRE 1056 -1120 1056 -1152
WIRE 1056 -1120 960 -1120
WIRE 1424 -1120 1216 -1120
WIRE 1536 -1120 1424 -1120
WIRE 432 -1088 336 -1088
WIRE 512 -1088 432 -1088
WIRE 1040 -1088 1040 -1184
WIRE 1040 -1088 992 -1088
WIRE 1424 -1088 1216 -1088
WIRE 1536 -1088 1424 -1088
WIRE 1424 -1056 1216 -1056
WIRE 1536 -1056 1424 -1056
WIRE 432 -1040 336 -1040
WIRE 1792 -1008 1744 -1008
WIRE 1840 -1008 1792 -1008
WIRE 2048 -1008 2000 -1008
WIRE 2080 -1008 2048 -1008
WIRE -416 -992 -448 -992
WIRE -336 -992 -416 -992
WIRE -128 -992 -128 -1120
WIRE -128 -992 -176 -992
WIRE -32 -992 -128 -992
WIRE 80 -992 -32 -992
WIRE 432 -992 336 -992
WIRE 1104 -992 1072 -992
WIRE -688 -960 -688 -1120
WIRE -592 -960 -688 -960
WIRE 1104 -960 1072 -960
WIRE 1424 -960 1264 -960
WIRE 1536 -960 1424 -960
WIRE 1840 -960 1792 -960
WIRE -336 -944 -416 -944
WIRE -592 -928 -704 -928
WIRE -448 -928 -448 -992
WIRE -448 -928 -480 -928
WIRE 1104 -928 1072 -928
WIRE 1424 -928 1296 -928
WIRE 1536 -928 1424 -928
WIRE 1424 -896 1344 -896
WIRE 1536 -896 1424 -896
WIRE -416 -864 -416 -944
WIRE 176 -848 96 -848
WIRE 1648 -832 1568 -832
WIRE 1792 -816 1792 -960
WIRE 1792 -816 1728 -816
WIRE 176 -800 96 -800
WIRE 512 -800 512 -1088
WIRE 512 -800 368 -800
WIRE 1648 -800 1568 -800
WIRE -544 -784 -544 -848
WIRE -544 -784 -576 -784
WIRE 1152 -784 1152 -880
WIRE 1152 -784 1072 -784
WIRE -544 -768 -544 -784
WIRE 176 -752 96 -752
WIRE -544 -672 -544 -688
WIRE 1024 -656 1024 -1216
WIRE 1072 -656 1024 -656
WIRE 992 -624 992 -1088
WIRE 1072 -624 992 -624
WIRE 960 -592 960 -1120
WIRE 1072 -592 960 -592
WIRE 1264 -560 1264 -960
WIRE 1264 -560 1184 -560
WIRE 416 -544 368 -544
WIRE -272 -528 -272 -544
WIRE 1296 -528 1296 -928
WIRE 1296 -528 1184 -528
WIRE 208 -512 80 -512
WIRE 416 -512 368 -512
WIRE -704 -496 -704 -528
WIRE 1344 -496 1344 -896
WIRE 1344 -496 1184 -496
WIRE 208 -480 80 -480
WIRE 416 -480 368 -480
WIRE 1072 -432 1040 -432
WIRE -480 -416 -480 -464
WIRE 1072 -400 1040 -400
WIRE 32 -384 0 -384
WIRE 144 -368 112 -368
WIRE 208 -368 144 -368
WIRE 1072 -368 1040 -368
WIRE 32 -352 0 -352
WIRE 1120 -224 1120 -320
WIRE 1120 -224 1040 -224
FLAG -768 -1152 $G_Vss
FLAG -704 -416 0
FLAG -768 -1216 $G_Vdd
FLAG 432 -1088 I0_opcode
FLAG 432 -1040 I1
FLAG 432 -992 I2
FLAG -592 -896 0
FLAG -544 -1120 PC_PLUS_1
FLAG -704 -928 0
FLAG -544 -672 0
FLAG -576 -784 CTRL_PC
FLAG 96 -848 IS_CMP
FLAG 96 -800 IS_LWI
FLAG 96 -752 IS_BE
FLAG 416 -544 A0
FLAG 416 -512 A1
FLAG 416 -480 A2
FLAG 208 -544 0
FLAG 80 -512 I1
FLAG 80 -480 I2
FLAG 0 -384 IS_LWI
FLAG -704 -528 FETCH
FLAG -416 -864 FETCH
FLAG -480 -336 0
FLAG -480 -464 DECODE
FLAG -272 -448 0
FLAG -272 -544 EXECUTE
FLAG 0 -352 EXECUTE
FLAG -32 -992 PC
FLAG -416 -992 NEXT_ADDR
FLAG 1792 -1008 S_IN
FLAG 2048 -1008 S
FLAG 992 -1152 $G_Vss
FLAG 992 -1216 $G_Vdd
FLAG 992 -1184 0
FLAG 1104 -1104 0
FLAG 1104 -1072 0
FLAG 1104 -1040 0
FLAG 1072 -992 A0
FLAG 1072 -960 A1
FLAG 1072 -928 A2
FLAG 1072 -784 I1
FLAG 1072 -544 0
FLAG 1072 -512 0
FLAG 1072 -480 0
FLAG 1040 -432 A0
FLAG 1040 -400 A1
FLAG 1040 -368 A2
FLAG 1040 -224 I2
FLAG 1424 -1120 ALU_IN_A0
FLAG 1424 -1088 ALU_IN_A1
FLAG 1424 -1056 ALU_IN_A2
FLAG 1424 -960 ALU_IN_B0
FLAG 1424 -928 ALU_IN_B1
FLAG 1424 -896 ALU_IN_B2
FLAG 1792 -816 CLK_STATUS
FLAG 1568 -832 IS_CMP
FLAG 1568 -800 EXECUTE
FLAG 144 -368 CLK_A
SYMBOL tpower -768 -1184 R0
SYMATTR InstName X2
SYMBOL tcycle_up -400 -1120 M0
SYMATTR InstName CYCLE_PC
SYMBOL voltage -704 -512 R0
WINDOW 123 0 0 Left 0
WINDOW 39 0 0 Left 0
WINDOW 3 -78 187 VLeft 0
SYMATTR Value PULSE(-5 5 3u 1n 1n 15u 30u)
SYMATTR InstName CLK_F
SYMBOL dtflop-ms2 -256 -1040 R0
SYMATTR InstName PROGRAM_COUNTER
SYMBOL mux3-1 -528 -960 R0
SYMATTR InstName MUX_PC
SYMBOL voltage -544 -784 R0
WINDOW 123 0 0 Left 0
WINDOW 39 0 0 Left 0
WINDOW 3 32 65 Left 0
SYMATTR Value PWL(0 0 5u 0 5.1u -5)
SYMATTR InstName V1
SYMBOL decoder1-3 272 -848 M0
SYMATTR InstName X3
SYMBOL trit_reg3 288 -592 R0
SYMATTR InstName REGISTER_A
SYMBOL voltage -480 -432 R0
WINDOW 3 -51 205 VLeft 0
SYMATTR Value PULSE(-5 5 5u 100p 100p 15u 30u)
SYMATTR InstName CLK_D
SYMBOL voltage -272 -544 R0
WINDOW 3 -55 231 VLeft 0
SYMATTR Value PULSE(-5 5 10u 1n 1n 15u 30u)
SYMATTR InstName CLK_X
SYMBOL min 64 -368 R0
SYMATTR InstName DO_LWI
SYMBOL dtflop-ms 1920 -1056 R0
SYMATTR InstName STATUS_REG
SYMBOL mux9-3 1168 -1216 R0
SYMATTR InstName MUX_ALU_A
SYMBOL mux9-3 1136 -656 R0
SYMATTR InstName MUX_ALU_B
SYMBOL min 1680 -816 R0
SYMATTR InstName DO_CMP
SYMBOL alu 1584 -1120 R0
SYMATTR InstName Xalu
SYMBOL swrom-lwitest 128 -1088 R0
SYMATTR InstName X1
TEXT -200 -744 Left 0 !.tran 160u
TEXT -864 -960 Left 0 ;Reset address
TEXT 8 -920 Left 0 ;Should result in S = _1, _1, 1
TEXT 736 -1192 Left 0 ;IN "Register"\n(User input)
TEXT 736 -1088 Left 0 ;OUT "Register"\n(Cannot read from)
TEXT 736 -968 Left 0 ;A Register
TEXT 704 -632 Left 0 ;IN "Register"\n(User input)
TEXT 704 -528 Left 0 ;OUT "Register"\n(Cannot read from)
TEXT 704 -408 Left 0 ;A Register
RECTANGLE Normal 464 -240 -112 -640
RECTANGLE Normal 2112 -160 688 -1344
