Version 4
SHEET 1 1652 1000
WIRE -544 48 -688 48
WIRE -416 48 -544 48
WIRE -128 48 -384 48
WIRE 352 80 336 80
WIRE 432 80 352 80
WIRE 512 80 432 80
WIRE 352 128 336 128
WIRE 432 128 352 128
WIRE -416 176 -448 176
WIRE -336 176 -416 176
WIRE -128 176 -128 48
WIRE -128 176 -176 176
WIRE -32 176 -128 176
WIRE 96 176 -32 176
WIRE 352 176 336 176
WIRE 432 176 352 176
WIRE -688 208 -688 48
WIRE -592 208 -688 208
WIRE -336 224 -416 224
WIRE -592 240 -704 240
WIRE -448 240 -448 176
WIRE -448 240 -480 240
WIRE -416 304 -416 224
WIRE 176 320 96 320
WIRE 176 368 96 368
WIRE 512 368 512 80
WIRE 512 368 368 368
WIRE -544 384 -544 320
WIRE -544 384 -576 384
WIRE -544 400 -544 384
WIRE 176 416 96 416
WIRE -544 496 -544 480
WIRE 288 560 240 560
WIRE 80 592 -16 592
WIRE 288 592 240 592
WIRE 80 624 -16 624
WIRE 288 624 240 624
WIRE -704 672 -704 640
WIRE -496 672 -496 656
WIRE -304 688 -304 640
WIRE -64 720 -96 720
WIRE 80 736 16 736
WIRE -64 752 -96 752
FLAG -768 16 $G_Vss
FLAG -704 752 0
FLAG -768 -48 $G_Vdd
FLAG 432 80 I0_opcode
FLAG 432 128 I1
FLAG 432 176 I2
FLAG -592 272 0
FLAG -544 48 PC_PLUS_1
FLAG -704 240 0
FLAG -544 496 0
FLAG -576 384 CTRL_PC
FLAG 96 320 IS_CMP
FLAG 96 368 IS_LWI
FLAG 96 416 IS_BE
FLAG 288 560 A0
FLAG 288 592 A1
FLAG 288 624 A2
FLAG 80 560 0
FLAG -16 592 I1
FLAG -16 624 I2
FLAG -96 720 IS_LWI
FLAG -704 640 FETCH
FLAG -416 304 FETCH
FLAG -304 768 0
FLAG -304 640 DECODE
FLAG -496 752 0
FLAG -496 656 EXECUTE
FLAG -96 752 DECODE
FLAG -32 176 ADDRESS_BUF
FLAG -416 176 NEXT_ADDR
SYMBOL tpower -768 -16 R0
SYMATTR InstName X2
SYMBOL tcycle_up -400 48 M0
SYMATTR InstName CYCLE_PC
SYMBOL voltage -704 656 R0
WINDOW 123 0 0 Left 0
WINDOW 39 0 0 Left 0
WINDOW 3 -78 187 VLeft 0
SYMATTR Value PULSE(-5 5 3u 1n 1n 15u 30u)
SYMATTR InstName CLK_F
SYMBOL dtflop-et-ms -256 128 R0
SYMATTR InstName PROGRAM_COUNTER
SYMBOL mux3-1 -528 208 R0
SYMATTR InstName MUX_PC
SYMBOL voltage -544 384 R0
WINDOW 123 0 0 Left 0
WINDOW 39 0 0 Left 0
WINDOW 3 32 65 Left 0
SYMATTR Value PWL(0 0 5u 0 5.1u -5)
SYMATTR InstName V1
SYMBOL decoder3-1 272 320 M0
SYMATTR InstName X3
SYMBOL trit_reg3 160 512 R0
SYMATTR InstName REGISTER_A
SYMBOL voltage -304 672 R0
WINDOW 3 -51 205 VLeft 0
SYMATTR Value PULSE(-5 5 5u 100p 100p 15u 30u)
SYMATTR InstName CLK_D
SYMBOL voltage -496 656 R0
WINDOW 3 -55 231 VLeft 0
SYMATTR Value PULSE(-5 5 10u 1n 1n 15u 30u)
SYMATTR InstName CLK_X
SYMBOL min -32 736 R0
SYMATTR InstName X6
SYMBOL swrom 144 80 R0
SYMATTR InstName X1
TEXT -200 424 Left 0 !.tran 160u
TEXT -864 208 Left 0 ;Reset address
TEXT 8 248 Left 0 ;Address _1 contains instruction "lwi -3"
