Version 4
SHEET 1 2116 2028
WIRE -256 -1136 -576 -1136
WIRE -144 -1136 -256 -1136
WIRE -16 -1136 -112 -1136
WIRE 544 -1104 448 -1104
WIRE 624 -1104 544 -1104
WIRE -464 -1088 -528 -1088
WIRE 544 -1056 448 -1056
WIRE -304 -1008 -336 -1008
WIRE -224 -1008 -304 -1008
WIRE -16 -1008 -16 -1136
WIRE -16 -1008 -64 -1008
WIRE 80 -1008 -16 -1008
WIRE 192 -1008 80 -1008
WIRE 544 -1008 448 -1008
WIRE -576 -976 -576 -1136
WIRE -480 -976 -576 -976
WIRE -224 -960 -304 -960
WIRE -736 -944 -768 -944
WIRE -528 -944 -528 -1088
WIRE -480 -944 -528 -944
WIRE -336 -944 -336 -1008
WIRE -336 -944 -368 -944
WIRE -736 -912 -768 -912
WIRE -544 -912 -624 -912
WIRE -480 -912 -544 -912
WIRE -736 -880 -768 -880
WIRE -304 -880 -304 -960
WIRE 288 -864 208 -864
WIRE -688 -816 -688 -832
WIRE -432 -816 -432 -864
WIRE 288 -816 208 -816
WIRE 624 -816 624 -1104
WIRE 624 -816 480 -816
WIRE 288 -768 208 -768
WIRE 512 -544 464 -544
WIRE 304 -512 176 -512
WIRE 512 -512 464 -512
WIRE 304 -480 176 -480
WIRE 512 -480 464 -480
WIRE -400 -432 -448 -432
WIRE 128 -384 96 -384
WIRE -400 -368 -448 -368
WIRE 240 -368 208 -368
WIRE 304 -368 240 -368
WIRE 128 -352 96 -352
FLAG -192 -560 $G_Vss
FLAG -192 -624 $G_Vdd
FLAG 544 -1104 I0_opcode
FLAG 544 -1056 I1
FLAG 544 -1008 I2
FLAG -256 -1136 PC_PLUS_1
FLAG 208 -864 IS_CMP
FLAG 208 -816 IS_LWI
FLAG 208 -768 IS_BE
FLAG 512 -544 A0
FLAG 512 -512 A1
FLAG 512 -480 A2
FLAG 304 -544 0
FLAG 176 -512 I1
FLAG 176 -480 I2
FLAG 96 -384 IS_LWI
FLAG -304 -880 FETCH
FLAG 96 -352 EXECUTE
FLAG 80 -1008 PC
FLAG -304 -1008 NEXT_PC
FLAG 240 -368 CLK_A
FLAG -400 -432 FETCH
FLAG -400 -368 EXECUTE
FLAG -432 -816 IS_BE
FLAG -544 -912 JUMP_ADDR
FLAG -464 -1088 0
FLAG -688 -816 0
FLAG -768 -912 I1
FLAG -768 -944 I2
FLAG -768 -880 I2
SYMBOL tpower -192 -592 R0
SYMATTR InstName X2
SYMBOL tcycle_up -128 -1136 M0
SYMATTR InstName CYCLE_PC
SYMBOL mux3-1 -416 -976 R0
SYMATTR InstName MUX_PC
SYMBOL decoder1-3 384 -864 M0
SYMATTR InstName X3
SYMBOL trit_reg3 384 -592 R0
SYMATTR InstName REGISTER_A
SYMBOL min 160 -368 R0
SYMATTR InstName DO_LWI
SYMBOL clock_gen -528 -480 R0
SYMATTR InstName cg
SYMBOL dtflop-ms2 -144 -1056 R0
SYMATTR InstName PROGRAM_COUNTER
SYMBOL mux3-1 -672 -944 R0
SYMATTR InstName JUMP_MUX
SYMBOL swrom-jmptest 240 -1104 R0
SYMATTR InstName X1
TEXT -88 -760 Left 0 !.tran 320u
TEXT -448 -1088 Left 0 ;Not used
TEXT -808 -912 Left 0 ;=
TEXT -808 -944 Left 0 ;<
TEXT -808 -880 Left 0 ;>
TEXT 216 -944 Left 0 ;Branch instructions
RECTANGLE Normal 560 -240 -16 -640
RECTANGLE Normal -352 -688 -832 -1184
