Version 4
SHEET 1 1652 680
WIRE 880 32 800 32
WIRE -544 48 -688 48
WIRE -416 48 -544 48
WIRE -128 48 -384 48
WIRE 1648 64 1488 64
WIRE 416 80 320 80
WIRE 608 80 416 80
WIRE 880 80 800 80
WIRE 1328 96 1232 96
WIRE 1648 96 1488 96
WIRE 416 128 320 128
WIRE 880 128 800 128
WIRE 1328 128 1232 128
WIRE 1648 128 1488 128
WIRE 1328 160 1232 160
WIRE -336 176 -448 176
WIRE -128 176 -128 48
WIRE -128 176 -176 176
WIRE -32 176 -128 176
WIRE 64 176 -32 176
WIRE 416 176 320 176
WIRE -688 208 -688 48
WIRE -592 208 -688 208
WIRE -336 224 -416 224
WIRE -592 240 -704 240
WIRE -448 240 -448 176
WIRE -448 240 -480 240
WIRE 1328 240 1232 240
WIRE -416 336 -416 224
WIRE -544 400 -544 320
WIRE -416 464 -416 416
WIRE -544 480 -544 400
WIRE -544 592 -544 560
FLAG -768 16 $G_Vss
FLAG -32 176 ADDRESS
FLAG -416 464 0
FLAG -768 -48 $G_Vdd
FLAG 416 80 I0_opcode
FLAG 416 128 I1
FLAG 416 176 I2
FLAG -592 272 0
FLAG -544 48 ADDR_PLUS_1
FLAG -704 240 $G_Vss
FLAG -544 592 0
FLAG -544 400 CTRL_PC
FLAG 880 32 IS_CMP
FLAG 880 80 IS_LWI
FLAG 880 128 IS_BE
FLAG 1232 240 IS_LWI
FLAG 1232 128 I1
FLAG 1232 160 I2
FLAG 1232 96 0
SYMBOL tpower -768 -16 R0
SYMATTR InstName X2
SYMBOL tcycle_up -400 48 M0
SYMATTR InstName X4
SYMBOL voltage -416 320 R0
WINDOW 123 0 0 Left 0
WINDOW 39 0 0 Left 0
SYMATTR InstName CLK
SYMATTR Value PULSE(-5 5 0n 1n 1n 20n 40n)
SYMBOL dtflop-et-ms -256 128 R0
SYMATTR InstName PROGRAM_COUNTER
SYMBOL mux3-1 -528 208 R0
SYMATTR InstName X5
SYMBOL voltage -544 464 R0
WINDOW 123 0 0 Left 0
WINDOW 39 0 0 Left 0
SYMATTR InstName V1
SYMATTR Value PWL(0 0 14n 0 15n -5)
SYMBOL swrom-fast 112 80 R0
SYMATTR InstName X1
SYMBOL decoder3-1 704 32 R0
SYMATTR InstName X3
SYMBOL trit_reg3 1408 16 R0
SYMATTR InstName REGISTER_A
TEXT -64 336 Left 0 !.tran 280n
TEXT -864 208 Left 0 ;Reset address
TEXT 816 320 Left 0 ;TODO: cmp, be
