Version 4
SHEET 1 2116 2028
WIRE -544 -1120 -688 -1120
WIRE -416 -1120 -544 -1120
WIRE -128 -1120 -384 -1120
WIRE 432 -1088 336 -1088
WIRE 512 -1088 432 -1088
WIRE 432 -1040 336 -1040
WIRE -416 -992 -448 -992
WIRE -336 -992 -416 -992
WIRE -128 -992 -128 -1120
WIRE -128 -992 -176 -992
WIRE -32 -992 -128 -992
WIRE 80 -992 -32 -992
WIRE 432 -992 336 -992
WIRE -688 -960 -688 -1120
WIRE -592 -960 -688 -960
WIRE -336 -944 -416 -944
WIRE -592 -928 -704 -928
WIRE -448 -928 -448 -992
WIRE -448 -928 -480 -928
WIRE -416 -864 -416 -944
WIRE 176 -848 96 -848
WIRE 176 -800 96 -800
WIRE 512 -800 512 -1088
WIRE 512 -800 368 -800
WIRE -544 -784 -544 -848
WIRE -544 -784 -576 -784
WIRE -544 -768 -544 -784
WIRE 176 -752 96 -752
WIRE -544 -672 -544 -688
WIRE 288 -608 240 -608
WIRE 80 -576 -16 -576
WIRE 288 -576 240 -576
WIRE 80 -544 -16 -544
WIRE 288 -544 240 -544
WIRE -704 -496 -704 -528
WIRE -496 -496 -496 -512
WIRE -304 -480 -304 -528
WIRE -64 -448 -96 -448
WIRE 80 -432 16 -432
WIRE -64 -416 -96 -416
FLAG -768 -1152 $G_Vss
FLAG -704 -416 0
FLAG -768 -1216 $G_Vdd
FLAG 432 -1088 I0_opcode
FLAG 432 -1040 I1
FLAG 432 -992 I2
FLAG -592 -896 0
FLAG -544 -1120 PC_PLUS_1
FLAG -704 -928 0
FLAG -544 -672 0
FLAG -576 -784 CTRL_PC
FLAG 96 -848 IS_CMP
FLAG 96 -800 IS_LWI
FLAG 96 -752 IS_BE
FLAG 288 -608 A0
FLAG 288 -576 A1
FLAG 288 -544 A2
FLAG 80 -608 0
FLAG -16 -576 I1
FLAG -16 -544 I2
FLAG -96 -448 IS_LWI
FLAG -704 -528 FETCH
FLAG -416 -864 FETCH
FLAG -304 -400 0
FLAG -304 -528 DECODE
FLAG -496 -416 0
FLAG -496 -512 EXECUTE
FLAG -96 -416 DECODE
FLAG -32 -992 ADDRESS_BUF
FLAG -416 -992 NEXT_ADDR
SYMBOL tpower -768 -1184 R0
SYMATTR InstName X2
SYMBOL tcycle_up -400 -1120 M0
SYMATTR InstName CYCLE_PC
SYMBOL voltage -704 -512 R0
WINDOW 123 0 0 Left 0
WINDOW 39 0 0 Left 0
WINDOW 3 -78 187 VLeft 0
SYMATTR Value PULSE(-5 5 3u 1n 1n 15u 30u)
SYMATTR InstName CLK_F
SYMBOL dtflop-ms2 -256 -1040 R0
SYMATTR InstName PROGRAM_COUNTER
SYMBOL mux3-1 -528 -960 R0
SYMATTR InstName MUX_PC
SYMBOL voltage -544 -784 R0
WINDOW 123 0 0 Left 0
WINDOW 39 0 0 Left 0
WINDOW 3 32 65 Left 0
SYMATTR Value PWL(0 0 5u 0 5.1u -5)
SYMATTR InstName V1
SYMBOL decoder1-3 272 -848 M0
SYMATTR InstName X3
SYMBOL trit_reg3 160 -656 R0
SYMATTR InstName REGISTER_A
SYMBOL voltage -304 -496 R0
WINDOW 3 -51 205 VLeft 0
WINDOW 0 8 6 Left 0
SYMATTR Value PULSE(-5 5 5u 100p 100p 15u 30u)
SYMATTR InstName CLK_D
SYMBOL voltage -496 -512 R0
WINDOW 3 -55 231 VLeft 0
SYMATTR Value PULSE(-5 5 10u 1n 1n 15u 30u)
SYMATTR InstName CLK_X
SYMBOL min -32 -432 R0
SYMATTR InstName DO_LWI
SYMBOL swrom-lwitest 128 -1088 R0
SYMATTR InstName X1
TEXT -200 -744 Left 0 !.tran 160u
TEXT -864 -960 Left 0 ;Reset address
TEXT 8 -920 Left 0 ;Loads into A: _1 0, 1 _1, 0 0
TEXT -392 -1288 Left 0 ;Architecture to test LWI instruction
RECTANGLE Normal 368 -304 -208 -704
