Version 4
SHEET 1 2116 2028
WIRE 368 -1296 144 -1296
WIRE 496 -1296 400 -1296
WIRE 992 -1264 896 -1264
WIRE 1072 -1264 992 -1264
WIRE 992 -1216 896 -1216
WIRE 144 -1168 144 -1296
WIRE 208 -1168 144 -1168
WIRE 288 -1168 208 -1168
WIRE 496 -1168 496 -1296
WIRE 496 -1168 448 -1168
WIRE 544 -1168 496 -1168
WIRE 640 -1168 544 -1168
WIRE 992 -1168 896 -1168
WIRE 288 -1120 208 -1120
WIRE 208 -1040 208 -1120
WIRE 736 -1024 656 -1024
WIRE 736 -976 656 -976
WIRE 1072 -976 1072 -1264
WIRE 1072 -976 928 -976
WIRE 736 -928 656 -928
WIRE 1024 -704 976 -704
WIRE 816 -672 688 -672
WIRE 1024 -672 976 -672
WIRE 816 -640 688 -640
WIRE 1024 -640 976 -640
WIRE 272 -592 240 -592
WIRE 352 -592 320 -592
WIRE 640 -544 608 -544
WIRE 240 -528 240 -592
WIRE 240 -528 192 -528
WIRE 352 -528 240 -528
WIRE 752 -528 720 -528
WIRE 816 -528 752 -528
WIRE 640 -512 608 -512
FLAG 288 -816 $G_Vss
FLAG 288 -880 $G_Vdd
FLAG 992 -1264 I0_opcode
FLAG 992 -1216 I1
FLAG 992 -1168 I2
FLAG 656 -1024 IS_CMP
FLAG 656 -976 IS_LWI
FLAG 656 -928 IS_BE
FLAG 1024 -704 A0
FLAG 1024 -672 A1
FLAG 1024 -640 A2
FLAG 816 -704 0
FLAG 688 -672 I1
FLAG 688 -640 I2
FLAG 608 -544 IS_LWI
FLAG 208 -1040 FETCH
FLAG 608 -512 EXECUTE
FLAG 544 -1168 PC
FLAG 208 -1168 NEXT_PC
FLAG 752 -528 CLK_A
FLAG 352 -592 FETCH
FLAG 352 -528 EXECUTE
SYMBOL tpower 288 -848 R0
SYMATTR InstName X2
SYMBOL tcycle_up 384 -1296 M0
SYMATTR InstName CYCLE_PC
SYMBOL decoder1-3 832 -1024 M0
WINDOW 0 -75 -36 Left 0
SYMATTR InstName INSTR_DEC
SYMBOL trit_reg3 896 -752 R0
SYMATTR InstName REGISTER_A
SYMBOL min 672 -528 R0
SYMATTR InstName DO_LWI
SYMBOL dtflop-ms2 368 -1216 R0
SYMATTR InstName PROGRAM_COUNTER
SYMBOL sti 288 -592 R0
SYMATTR InstName NEG_CLK
SYMBOL clock_gen-fast 112 -608 R0
SYMATTR InstName cg
SYMBOL swrom-lwitest 688 -1264 R0
SYMATTR InstName X1
TEXT 424 -920 Left 0 !.tran 320u
TEXT 712 -432 Left 0 ;LWI Instruction
TEXT 352 -1440 Left 0 ;3-TRIT TRINARY COMPUTER ARCHITECTURE\nVersion 0 (TCA0) -- LWI Instruction Only
RECTANGLE Normal 1072 -400 496 -800
