Version 4
SHEET 1 880 680
WIRE -128 48 -544 48
WIRE 416 80 320 80
WIRE 416 128 320 128
WIRE -336 176 -416 176
WIRE -128 176 -128 48
WIRE -128 176 -176 176
WIRE -32 176 -128 176
WIRE 64 176 -32 176
WIRE 416 176 320 176
WIRE -544 192 -544 48
WIRE -496 192 -544 192
WIRE -416 192 -416 176
WIRE -416 192 -464 192
WIRE -336 224 -416 224
WIRE -416 336 -416 224
WIRE -416 464 -416 416
FLAG -768 16 $G_Vss
FLAG -32 176 ADDRESS
FLAG -416 464 0
FLAG -768 -48 $G_Vdd
FLAG 416 80 D0
FLAG 416 128 D1
FLAG 416 176 D2
SYMBOL tpower -768 -16 R0
SYMATTR InstName X2
SYMBOL tcycle_up -480 192 R0
SYMATTR InstName X4
SYMBOL voltage -416 320 R0
WINDOW 123 0 0 Left 0
WINDOW 39 0 0 Left 0
SYMATTR InstName CLK
SYMATTR Value PULSE(-5 5 10n 1n 1n 10n 20n)
SYMBOL dtflop-et-ms -256 128 R0
SYMATTR InstName X1
SYMBOL swrom 112 80 R0
SYMATTR InstName X3
TEXT -64 336 Left 0 !.tran 50n
