Version 4
SHEET 1 1124 680
WIRE -544 48 -688 48
WIRE -416 48 -544 48
WIRE -128 48 -384 48
WIRE 416 80 320 80
WIRE 416 128 320 128
WIRE -336 176 -448 176
WIRE -128 176 -128 48
WIRE -128 176 -176 176
WIRE -32 176 -128 176
WIRE 64 176 -32 176
WIRE 416 176 320 176
WIRE -688 208 -688 48
WIRE -592 208 -688 208
WIRE -336 224 -416 224
WIRE -592 240 -704 240
WIRE -448 240 -448 176
WIRE -448 240 -480 240
WIRE -416 336 -416 224
WIRE -544 400 -544 320
WIRE -416 464 -416 416
WIRE -544 480 -544 400
WIRE -544 592 -544 560
FLAG -768 16 $G_Vss
FLAG -32 176 ADDRESS
FLAG -416 464 0
FLAG -768 -48 $G_Vdd
FLAG 416 80 D0
FLAG 416 128 D1
FLAG 416 176 D2
FLAG -592 272 0
FLAG -544 48 ADDR_PLUS_1
FLAG -704 240 $G_Vss
FLAG -544 592 0
FLAG -544 400 CTRL_PC
SYMBOL tpower -768 -16 R0
SYMATTR InstName X2
SYMBOL tcycle_up -400 48 M0
SYMATTR InstName X4
SYMBOL voltage -416 320 R0
WINDOW 123 0 0 Left 0
WINDOW 39 0 0 Left 0
SYMATTR InstName CLK
SYMATTR Value PULSE(-5 5 0n 1n 1n 20n 40n)
SYMBOL dtflop-et-ms -256 128 R0
SYMATTR InstName PROGRAM_COUNTER
SYMBOL mux3-1 -528 208 R0
SYMATTR InstName X5
SYMBOL voltage -544 464 R0
WINDOW 123 0 0 Left 0
WINDOW 39 0 0 Left 0
SYMATTR InstName V1
SYMATTR Value PWL(0 0 14n 0 15n -5)
SYMBOL swrom-fast 112 80 R0
SYMATTR InstName X1
TEXT -64 336 Left 0 !.tran 280n
TEXT -864 208 Left 0 ;Reset address
