Version 4
SHEET 1 880 680
WIRE -32 112 -48 112
WIRE 128 128 96 128
WIRE -32 144 -48 144
FLAG -48 112 A
IOPIN -48 112 In
FLAG -48 144 B
IOPIN -48 144 In
FLAG 128 128 MAX_OUT
IOPIN 128 128 Out
SYMBOL tnor 0 128 R0
SYMATTR InstName X1
SYMBOL sti 64 128 R0
SYMATTR InstName X2
