Version 4
SHEET 1 880 680
WIRE -32 112 -48 112
WIRE 64 128 48 128
WIRE 128 128 112 128
WIRE -32 144 -48 144
FLAG -48 112 A
IOPIN -48 112 In
FLAG -48 144 B
IOPIN -48 144 In
FLAG 128 128 MIN_OUT
IOPIN 128 128 Out
FLAG 48 128 AtnandB
SYMBOL sti 80 128 R0
WINDOW 0 9 -34 Center 0
SYMATTR InstName Xsti_tand
SYMBOL tnand 0 128 R0
WINDOW 0 -9 -47 Center 0
SYMATTR InstName Xtnand
