Version 4
SHEET 1 880 680
SYMBOL min 144 176 R0
SYMATTR InstName X1
