Version 4
SHEET 1 880 744
WIRE 144 32 96 32
WIRE 480 32 176 32
WIRE 256 96 96 96
WIRE 480 96 480 32
WIRE 480 96 288 96
WIRE 368 176 96 176
WIRE 480 176 480 96
WIRE 480 176 400 176
WIRE 480 256 480 176
WIRE 160 272 160 48
WIRE 224 272 160 272
WIRE 384 272 384 192
WIRE 384 272 320 272
WIRE 224 304 224 272
WIRE 272 304 272 112
WIRE 320 304 320 272
WIRE 272 544 272 496
WIRE 272 544 -16 544
FLAG 96 32 A
IOPIN 96 32 In
FLAG 96 96 B
IOPIN 96 96 In
FLAG 96 176 C
IOPIN 96 176 In
FLAG -16 544 S
IOPIN -16 544 In
FLAG 480 256 Q
IOPIN 480 256 Out
SYMBOL tg 160 32 R0
SYMATTR InstName X1
SYMBOL tg 384 176 R0
SYMATTR InstName X3
SYMBOL tg 272 96 R0
SYMATTR InstName X2
SYMBOL decoder3-1 224 400 R270
WINDOW 0 5 -32 Left 0
SYMATTR InstName X4
