Version 4
SHEET 1 880 744
WIRE 144 32 96 32
WIRE 480 32 176 32
WIRE 256 96 96 96
WIRE 480 96 480 32
WIRE 480 96 288 96
WIRE 368 176 96 176
WIRE 480 176 480 96
WIRE 480 176 400 176
WIRE 160 208 160 48
WIRE 272 208 272 112
WIRE 384 208 384 192
WIRE 480 256 480 176
WIRE 272 288 272 256
WIRE 384 320 384 256
WIRE 256 448 256 416
WIRE 160 544 160 256
WIRE 160 544 96 544
WIRE 256 544 256 496
WIRE 256 544 160 544
WIRE 288 544 288 416
WIRE 288 544 256 544
WIRE 384 544 384 368
WIRE 384 544 288 544
FLAG 96 32 A
IOPIN 96 32 In
FLAG 96 96 B
IOPIN 96 96 In
FLAG 96 176 C
IOPIN 96 176 In
FLAG 96 544 S
IOPIN 96 544 In
FLAG 480 256 Q
IOPIN 480 256 Out
SYMBOL tg 160 32 R0
SYMATTR InstName X1
SYMBOL nti 160 240 R270
SYMATTR InstName X2
SYMBOL pti 384 240 R270
SYMATTR InstName X3
SYMBOL pti 384 352 R270
SYMATTR InstName X4
SYMBOL tg 384 176 R0
SYMATTR InstName X5
SYMBOL tg 272 96 R0
SYMATTR InstName X6
SYMBOL pti 272 240 R270
SYMATTR InstName X7
SYMBOL sti 272 320 M270
SYMATTR InstName X9
SYMBOL sti 256 480 R270
SYMATTR InstName X10
SYMBOL tnor 272 384 M270
SYMATTR InstName X8
