Version 4
SHEET 1 880 744
WIRE 96 64 -416 64
WIRE 96 96 -288 96
WIRE 432 96 208 96
WIRE 96 128 -144 128
WIRE 144 240 144 176
WIRE 144 240 -16 240
WIRE -416 256 -416 64
WIRE -288 256 -288 96
WIRE -144 256 -144 128
WIRE -16 256 -16 240
WIRE 144 272 144 240
WIRE -416 336 -416 320
WIRE -416 368 -416 336
WIRE -288 368 -288 336
WIRE -288 368 -416 368
WIRE -192 368 -288 368
WIRE -144 368 -144 336
WIRE -144 368 -192 368
WIRE -16 368 -16 336
WIRE -16 368 -144 368
WIRE -192 384 -192 368
FLAG -192 384 0
FLAG -656 272 $G_Vss
FLAG -656 208 $G_Vdd
FLAG -416 64 A
FLAG -288 96 B
FLAG -144 128 C
FLAG 144 272 S
FLAG 432 96 Q
SYMBOL voltage -416 240 R0
WINDOW 3 -166 187 Left 0
WINDOW 123 0 0 Left 0
WINDOW 39 0 0 Left 0
SYMATTR Value SINE(0 5 200Meg)
SYMATTR InstName VA
SYMBOL voltage -288 240 R0
WINDOW 3 -101 194 Left 0
WINDOW 123 0 0 Left 0
WINDOW 39 0 0 Left 0
SYMATTR Value SINE(0 5 1000Meg)
SYMATTR InstName VB
SYMBOL voltage -144 240 R0
WINDOW 3 -24 199 Left 0
WINDOW 123 0 0 Left 0
WINDOW 39 0 0 Left 0
SYMATTR Value PULSE(-5 5 0n 1p 1p 3n 6n)
SYMATTR InstName VC
SYMBOL voltage -16 240 R0
WINDOW 123 0 0 Left 0
WINDOW 39 0 0 Left 0
SYMATTR InstName VS
SYMATTR Value PWL(0 -5 14n -5 15n 0 29n 0 30n 5)
SYMBOL tpower -656 240 R0
SYMATTR InstName X11
SYMBOL mux3-1 160 64 R0
SYMATTR InstName X1
TEXT -64 392 Left 0 !.tran 50n
