Version 4
SHEET 1 880 680
WIRE 176 160 144 160
WIRE 224 176 192 176
FLAG 144 160 IN
IOPIN 144 160 In
FLAG 224 176 OUT
IOPIN 224 176 Out
SYMBOL tinv 192 160 R0
SYMATTR InstName X1
