Version 4
SHEET 1 880 680
WIRE 224 112 208 112
WIRE 256 112 224 112
WIRE 192 128 160 128
FLAG 256 112 OUT
IOPIN 256 112 Out
FLAG 160 128 IN
IOPIN 160 128 In
SYMBOL tinv 208 128 R0
SYMATTR InstName inv
