Version 4
SHEET 1 880 680
WIRE 320 48 208 48
WIRE 320 64 256 64
WIRE 384 64 368 64
WIRE 448 64 384 64
WIRE 320 80 304 80
WIRE 256 96 256 64
WIRE 256 96 208 96
WIRE 304 96 304 80
WIRE 400 96 304 96
WIRE 384 112 384 64
WIRE 384 112 304 112
WIRE 304 128 304 112
WIRE 320 128 304 128
WIRE 256 144 256 96
WIRE 320 144 256 144
WIRE 400 144 400 96
WIRE 400 144 368 144
WIRE 448 144 400 144
WIRE 320 160 208 160
FLAG 448 144 Q
IOPIN 448 144 Out
FLAG 448 64 _Q
IOPIN 448 64 Out
FLAG 208 48 P
IOPIN 208 48 In
FLAG 208 96 Z
IOPIN 208 96 In
FLAG 208 160 N
IOPIN 208 160 In
SYMBOL tnor3 336 64 R0
SYMATTR InstName U1
SYMBOL tnor3 336 144 R0
SYMATTR InstName U2
