Version 4
SHEET 1 880 680
WIRE 176 64 -16 64
WIRE 224 64 176 64
WIRE 432 80 336 80
WIRE 176 96 80 96
WIRE 224 96 176 96
WIRE 224 128 176 128
WIRE 432 128 352 128
WIRE 224 160 208 160
WIRE 208 224 208 160
WIRE 288 224 208 224
WIRE -16 256 -16 64
WIRE 80 256 80 96
WIRE 176 256 176 128
WIRE 288 256 288 224
WIRE -16 352 -16 336
WIRE 80 352 80 336
WIRE 80 352 -16 352
WIRE 176 352 176 336
WIRE 176 352 80 352
WIRE 288 352 288 336
WIRE 288 352 176 352
WIRE 80 384 80 352
FLAG -144 112 $G_Vdd
FLAG -144 176 $G_Vss
FLAG 80 384 0
FLAG 432 80 Q
FLAG 432 128 _Q
FLAG 176 64 P
FLAG 176 96 Z
FLAG 176 128 N
FLAG 288 224 CLK
SYMBOL voltage 176 240 R0
WINDOW 3 -29 134 Left 0
WINDOW 123 0 0 Left 0
WINDOW 39 0 0 Left 0
SYMATTR Value PWL file=input_n.txt
SYMATTR InstName VN
SYMBOL voltage 80 240 R0
WINDOW 3 -88 180 Left 0
WINDOW 123 0 0 Left 0
WINDOW 39 0 0 Left 0
SYMATTR Value PWL file=input_z.txt
SYMATTR InstName VZ
SYMBOL voltage -16 240 R0
WINDOW 3 -239 108 Left 0
WINDOW 123 0 0 Left 0
WINDOW 39 0 0 Left 0
SYMATTR Value PWL file=input_p.txt
SYMATTR InstName VP
SYMBOL tpower -144 144 R0
SYMATTR InstName U1
SYMBOL pznflop 272 16 R0
SYMATTR InstName X1
SYMBOL voltage 288 240 R0
SYMATTR InstName VCLK
SYMATTR Value 5V
TEXT -256 440 Left 0 !.tran 0 65ns 35ns
TEXT -256 408 Left 0 !;tran 40ns
TEXT -88 -64 Left 0 ;WARNING: UNTESTED\nPulsing Z does not appear to set the flip-flop to zero.
