Version 4
SHEET 1 880 680
WIRE 128 -32 -16 -32
WIRE 128 0 80 0
WIRE 208 48 208 -16
WIRE 240 48 208 48
WIRE 304 48 240 48
WIRE 304 64 256 64
WIRE 416 64 384 64
WIRE 448 64 416 64
WIRE 128 80 -16 80
WIRE 240 96 208 96
WIRE 256 96 256 64
WIRE 256 96 240 96
WIRE 80 112 80 0
WIRE 128 112 80 112
WIRE 80 128 80 112
WIRE 80 128 -96 128
WIRE 304 128 416 64
WIRE 256 144 256 96
WIRE 304 144 256 144
WIRE 416 144 304 80
WIRE 416 144 384 144
WIRE 448 144 416 144
WIRE 240 160 208 160
WIRE 304 160 240 160
WIRE 80 208 80 128
WIRE 128 208 80 208
WIRE 208 224 208 160
WIRE 128 240 -16 240
FLAG 448 144 _Q
IOPIN 448 144 Out
FLAG 448 64 Q
IOPIN 448 64 Out
FLAG -16 -32 P
IOPIN -16 -32 In
FLAG -16 80 Z
IOPIN -16 80 In
FLAG -16 240 N
IOPIN -16 240 In
FLAG -96 128 CLK
IOPIN -96 128 In
FLAG 240 48 P_gated
FLAG 240 96 Z_gated
FLAG 240 160 N_gated
SYMBOL tnand3 336 64 R0
SYMATTR InstName Xlatch
SYMBOL tnand3 336 144 R0
WINDOW 0 2 44 Center 0
SYMATTR InstName _Xlatch
SYMBOL tnand 160 -16 R0
WINDOW 0 -13 -43 Center 0
SYMATTR InstName XtnandP
SYMBOL tnand 160 96 R0
WINDOW 0 -23 -44 Center 0
SYMATTR InstName XtnandZ
SYMBOL tnand 160 224 R0
WINDOW 0 -17 -43 Center 0
SYMATTR InstName XtnandN
TEXT -96 192 Left 0 ;_1
TEXT -48 144 Left 0 ;1
LINE Normal -64 192 -80 192
LINE Normal -64 144 -64 192
LINE Normal -16 144 -64 144
LINE Normal -16 192 -16 144
LINE Normal 0 192 -16 192
