Version 4
SHEET 1 880 680
WIRE 176 64 -16 64
WIRE 224 64 176 64
WIRE 432 80 336 80
WIRE 176 112 80 112
WIRE 224 112 176 112
WIRE 432 128 352 128
WIRE 224 160 176 160
WIRE -16 256 -16 64
WIRE 80 256 80 112
WIRE 176 256 176 160
WIRE -16 352 -16 336
WIRE 80 352 80 336
WIRE 80 352 -16 352
WIRE 176 352 176 336
WIRE 176 352 80 352
WIRE 80 384 80 352
FLAG -144 112 $G_Vdd
FLAG -144 176 $G_Vss
FLAG 80 384 0
FLAG 432 80 Q
FLAG 432 128 _Q
FLAG 176 64 P
FLAG 176 112 Z
FLAG 176 160 N
SYMBOL voltage 176 240 R0
WINDOW 3 25 113 Left 0
WINDOW 123 0 0 Left 0
WINDOW 39 0 0 Left 0
SYMATTR Value PWL file=input_n.txt
SYMATTR InstName VN
SYMBOL voltage 80 240 R0
WINDOW 3 -88 180 Left 0
WINDOW 123 0 0 Left 0
WINDOW 39 0 0 Left 0
SYMATTR Value PWL file=input_z.txt
SYMATTR InstName VZ
SYMBOL voltage -16 240 R0
WINDOW 3 -239 108 Left 0
WINDOW 123 0 0 Left 0
WINDOW 39 0 0 Left 0
SYMATTR Value PWL file=input_p.txt
SYMATTR InstName VP
SYMBOL tpower -144 144 R0
SYMATTR InstName U1
SYMBOL pznlatch 272 16 R0
SYMATTR InstName X2
TEXT -256 440 Left 0 !.tran 0 65ns 35ns
TEXT -256 408 Left 0 !.tran 40ns
