Version 4
SHEET 1 880 680
WIRE 144 192 112 192
WIRE 272 192 256 192
FLAG 112 192 IN
IOPIN 112 192 In
FLAG 320 192 OUT
IOPIN 320 192 Out
SYMBOL diode 256 176 R90
WINDOW 0 0 32 VBottom 0
WINDOW 3 32 32 VTop 0
SYMATTR InstName Xrd
SYMBOL sti 288 192 R0
SYMATTR InstName Xsti
SYMBOL nti 160 192 R0
SYMATTR InstName Xnti
