Version 4
SHEET 1 880 680
WIRE 176 64 128 64
WIRE 128 160 128 64
WIRE 128 160 0 160
WIRE 176 160 128 160
WIRE 128 256 128 160
WIRE 176 256 128 256
FLAG 0 160 COM
IOPIN 0 160 In
FLAG 240 64 1
IOPIN 240 64 Out
FLAG 240 160 2
IOPIN 240 160 Out
FLAG 240 256 3
IOPIN 240 256 Out
SYMBOL cap 240 48 R90
WINDOW 0 0 32 VBottom 0
WINDOW 3 32 32 VTop 0
SYMATTR InstName C1
SYMATTR Value 1pF
SYMBOL cap 176 144 M90
WINDOW 0 0 32 VBottom 0
WINDOW 3 32 32 VTop 0
SYMATTR InstName C2
SYMATTR Value 1pF
SYMBOL cap 176 240 M90
WINDOW 0 0 32 VBottom 0
WINDOW 3 32 32 VTop 0
SYMATTR InstName C3
SYMATTR Value 1pF
TEXT -184 -40 Left 0 ;This circuit doesn't do anything.\nPlaceholder for real SP3T switch, wired to avoid netlist errors/warnings.
