Version 4
SHEET 1 880 680
WIRE 160 128 112 128
WIRE 240 128 192 128
FLAG 112 128 IN
IOPIN 112 128 In
FLAG 240 128 OUT
IOPIN 240 128 Out
SYMBOL tinv 176 128 R0
SYMATTR InstName X1
