Version 4
SHEET 1 880 680
WIRE 192 128 160 128
WIRE 192 160 160 160
WIRE 192 192 160 192
WIRE 96 400 96 368
FLAG 96 400 ADDRESS
IOPIN 96 400 In
FLAG 192 128 D0
IOPIN 192 128 Out
FLAG 192 160 D1
IOPIN 192 160 Out
FLAG 192 192 D2
IOPIN 192 192 Out
FLAG 48 32 0
FLAG 48 64 $G_Vss
FLAG 48 96 $G_Vss
FLAG 48 144 $G_Vdd
FLAG 48 176 $G_Vss
FLAG 48 208 $G_Vss
FLAG 48 256 0
FLAG 48 288 $G_Vdd
FLAG 48 320 $G_Vdd
SYMBOL mux9-3 112 32 R0
SYMATTR InstName X1
TEXT -200 80 Left 0 ;end: lwi -4
TEXT -256 176 Left 0 ;start: be end, end
TEXT -224 296 Left 0 ;skipped: lwi 4
TEXT -264 8 Left 0 ;Tests unconditonal jump
