Version 4
SHEET 1 880 680
WIRE 48 64 -32 64
WIRE 48 96 -112 96
WIRE 192 128 160 128
WIRE 192 160 160 160
WIRE 48 176 -32 176
WIRE 192 192 160 192
WIRE 48 208 -112 208
WIRE 48 288 -32 288
WIRE 48 320 -112 320
WIRE 96 400 96 368
FLAG 96 400 ADDRESS
IOPIN 96 400 In
FLAG 192 128 D0
IOPIN 192 128 Out
FLAG 192 160 D1
IOPIN 192 160 Out
FLAG 192 192 D2
IOPIN 192 192 Out
SYMBOL mux9-3 112 32 R0
SYMATTR InstName X1
SYMBOL sp3t-trit -16 32 M0
SYMATTR InstName X2
SYMBOL sp3t-trit -96 64 M0
SYMATTR InstName X3
SYMBOL sp3t-trit -176 96 M0
SYMATTR InstName X4
SYMBOL sp3t-trit -16 144 M0
SYMATTR InstName X5
SYMBOL sp3t-trit -96 176 M0
SYMATTR InstName X6
SYMBOL sp3t-trit -176 208 M0
SYMATTR InstName X7
SYMBOL sp3t-trit -16 256 M0
SYMATTR InstName X8
SYMBOL sp3t-trit -96 288 M0
SYMATTR InstName X9
SYMBOL sp3t-trit -176 320 M0
SYMATTR InstName X10
