Version 4
SHEET 1 880 680
WIRE 416 80 320 80
WIRE 416 128 320 128
WIRE 64 176 -32 176
WIRE 416 176 320 176
WIRE -32 224 -32 176
FLAG 416 80 D0
FLAG 416 128 D1
FLAG 416 176 D2
FLAG -32 304 0
FLAG -192 32 $G_Vdd
FLAG -192 96 $G_Vss
FLAG -32 176 ADDRESS
SYMBOL voltage -32 208 R0
SYMATTR InstName A
SYMATTR Value PWL(0 -5 14n -5 15n 0 29n 0 30n 5)
SYMBOL tpower -192 64 R0
SYMATTR InstName X2
SYMBOL swrom-fast 112 80 R0
WINDOW 39 0 0 Left 0
SYMATTR InstName X1
TEXT -64 336 Left 0 !.tran 40n
TEXT 72 240 Left 0 !.include ../asm/guess.sp
