Version 4
SHEET 1 880 680
WIRE 192 128 160 128
WIRE 192 160 160 160
WIRE 192 192 160 192
WIRE 96 480 96 368
FLAG 48 32 0
FLAG 48 64 $G_Vss
FLAG 48 96 0
FLAG 48 144 $G_Vss
FLAG 48 176 $G_Vss
FLAG 48 208 $G_Vdd
FLAG 48 256 $G_Vdd
FLAG 48 288 $G_Vss
FLAG 48 320 0
FLAG 96 480 ADDRESS
IOPIN 96 480 In
FLAG 192 128 D0
IOPIN 192 128 Out
FLAG 192 160 D1
IOPIN 192 160 Out
FLAG 192 192 D2
IOPIN 192 192 Out
SYMBOL mux9-3 112 32 R0
SYMATTR InstName X1
TEXT -184 64 Left 0 ;init: lwi -3
TEXT -264 168 Left 0 ;check: cmp in, a
TEXT -216 288 Left 0 ;be init check
TEXT -904 272 Left 0 ;It seems that the jumper cannot connect global nodes
