Version 4
SHEET 1 880 680
WIRE 128 32 48 32
WIRE 160 32 128 32
WIRE 128 64 -32 64
WIRE 160 64 128 64
WIRE 128 96 -112 96
WIRE 160 96 128 96
WIRE 304 128 272 128
WIRE 128 144 48 144
WIRE 160 144 128 144
WIRE 304 160 272 160
WIRE 128 176 -32 176
WIRE 160 176 128 176
WIRE 304 192 272 192
WIRE 128 208 -112 208
WIRE 160 208 128 208
WIRE 128 256 48 256
WIRE 160 256 128 256
WIRE 128 288 -32 288
WIRE 160 288 128 288
WIRE 128 320 -112 320
WIRE 160 320 128 320
WIRE 208 400 208 368
FLAG 208 400 ADDRESS
IOPIN 208 400 In
FLAG 304 128 D0
IOPIN 304 128 Out
FLAG 304 160 D1
IOPIN 304 160 Out
FLAG 304 192 D2
IOPIN 304 192 Out
FLAG 128 32 NiA
FLAG 128 64 NiB
FLAG 128 96 NiC
FLAG 128 144 N0A
FLAG 128 176 N0B
FLAG 128 208 N0C
FLAG 128 256 N1A
FLAG 128 288 N1B
FLAG 128 320 N1C
SYMBOL mux9-3 224 32 R0
SYMATTR InstName X1
SYMBOL sp3t-trit -16 32 M0
SYMATTR InstName XiA
SYMBOL sp3t-trit -96 64 M0
SYMATTR InstName XiB
SYMBOL sp3t-trit -176 96 M0
SYMATTR InstName XiC
SYMBOL sp3t-trit -16 144 M0
SYMATTR InstName X0A
SYMBOL sp3t-trit -96 176 M0
SYMATTR InstName X0B
SYMBOL sp3t-trit -176 208 M0
SYMATTR InstName X0C
SYMBOL sp3t-trit -16 256 M0
SYMATTR InstName X1A
SYMBOL sp3t-trit -96 288 M0
SYMATTR InstName X1B
SYMBOL sp3t-trit -176 320 M0
SYMATTR InstName X1C
