Version 4
SHEET 1 880 680
WIRE 176 64 96 64
WIRE -1296 128 -1376 128
WIRE -1088 128 -1184 128
WIRE -1376 160 -1376 128
WIRE -1184 160 -1184 128
WIRE 176 208 96 208
WIRE -32 224 -240 224
WIRE -240 256 -240 224
WIRE -32 288 -32 224
WIRE 176 336 96 336
FLAG 176 64 D0
IOPIN 176 64 Out
FLAG 176 208 D1
IOPIN 176 208 Out
FLAG 176 336 D2
IOPIN 176 336 Out
FLAG -32 288 S
IOPIN -32 288 In
FLAG 96 144 0
FLAG 96 288 0
FLAG 96 416 0
FLAG -240 336 0
FLAG -560 432 $G_Vdd
FLAG -560 496 $G_Vss
FLAG -1376 240 0
FLAG -1296 128 _1
FLAG -1184 240 0
FLAG -1088 128 1
SYMBOL bv 96 48 R0
SYMATTR InstName B1
SYMATTR Value V=choose(V(0),V(_1),V(1))
SYMBOL bv 96 192 R0
SYMATTR InstName B2
SYMATTR Value V=choose(V(_1),V(_1),V(_1))
SYMBOL bv 96 320 R0
SYMATTR InstName B3
SYMATTR Value V=choose(V(0),V(1),V(0))
SYMBOL voltage -240 240 R0
WINDOW 123 0 0 Left 0
WINDOW 39 0 0 Left 0
SYMATTR InstName V1
SYMATTR Value PWL(0 -5 1n 5)
SYMBOL tpower -560 464 R0
SYMATTR InstName X1
SYMBOL bv -1376 144 R0
SYMATTR InstName B4
SYMATTR Value V=V($G_Vss)
SYMBOL bv -1184 144 R0
SYMATTR InstName B5
SYMATTR Value V=V($G_Vdd)
TEXT -560 56 Left 0 !; Threshold voltages\n.param V_N_max=-2\n.param V_P_min=2
TEXT -274 444 Left 0 !.tran 1n
TEXT -560 -32 Left 0 !; Select a voltage value based on the logic input at S\n.func choose(for_n,for_z,for_p) {if(v(s)<={V_N_max},for_n,if(v(s)>={V_P_min},for_p,for_z))}
TEXT -1528 96 Left 0 ;Shortcuts so you can type V(_1) for logic -1 instead of V($G_Vss), etc.
TEXT 400 296 Left 0 ;guess.t assembled
