Version 4
SHEET 1 880 680
WIRE 128 160 96 160
WIRE 192 160 176 160
WIRE 240 160 192 160
WIRE 320 160 288 160
FLAG 96 160 IN
IOPIN 96 160 In
FLAG 192 160 _IN
FLAG 320 160 OUT
IOPIN 320 160 Out
SYMBOL sti 144 160 R0
SYMATTR InstName Xinv1
SYMBOL sti 256 160 R0
SYMATTR InstName Xinv2
