Version 4
SHEET 1 880 680
WIRE 208 128 112 128
WIRE 320 128 256 128
WIRE 320 144 320 128
WIRE 352 144 320 144
WIRE 48 160 0 160
WIRE 112 160 112 128
WIRE 112 160 96 160
WIRE 144 160 112 160
WIRE 240 160 192 160
WIRE 448 160 432 160
WIRE 352 176 320 176
WIRE 240 192 224 192
WIRE 224 224 224 192
FLAG 0 160 IN
FLAG 448 160 OUT
FLAG 224 224 0
SYMBOL tnand 384 160 R0
WINDOW 0 -10 0 Left 0
SYMATTR InstName X1
SYMBOL tnand 272 176 R0
WINDOW 0 -9 0 Left 0
SYMATTR InstName X2
SYMBOL nti 160 160 R0
WINDOW 0 -15 34 Left 0
SYMATTR InstName X4
SYMBOL pti 224 128 R0
WINDOW 0 -16 -32 Left 0
SYMATTR InstName X3
SYMBOL sti 64 160 R0
WINDOW 0 -12 -36 Left 0
SYMATTR InstName X5
