Version 4
SHEET 1 880 680
WIRE 336 112 240 112
WIRE 208 128 112 128
WIRE 336 144 336 112
WIRE 352 144 336 144
WIRE 48 160 0 160
WIRE 112 160 112 128
WIRE 112 160 96 160
WIRE 144 160 112 160
WIRE 448 160 432 160
WIRE 240 176 176 176
WIRE 352 176 336 176
WIRE 336 192 336 176
WIRE 336 192 320 192
WIRE 240 208 208 208
WIRE 208 224 208 208
FLAG 0 160 IN
FLAG 208 224 0
FLAG 448 160 OUT
SYMBOL tnand 384 160 R0
WINDOW 0 -10 0 Left 0
SYMATTR InstName X1
SYMBOL tnand 272 192 R0
WINDOW 0 -9 0 Left 0
SYMATTR InstName X2
SYMBOL tinv 224 128 R0
WINDOW 0 -13 -36 Left 0
SYMATTR InstName X3
SYMBOL tinv 160 160 R0
WINDOW 0 -41 33 Left 0
SYMATTR InstName X4
SYMBOL tinv 64 160 R0
WINDOW 0 -39 -32 Left 0
SYMATTR InstName X5
