Version 4
SHEET 1 880 680
WIRE 160 176 64 176
WIRE 288 176 224 176
WIRE 64 192 64 176
WIRE 64 304 64 272
FLAG 64 304 0
FLAG 64 176 IN
FLAG 288 176 OUT
FLAG -224 176 $G_Vdd
FLAG -224 240 $G_Vss
SYMBOL tcycle_down 192 144 R0
SYMATTR InstName X1
SYMBOL voltage 64 176 R0
WINDOW 3 24 104 Invisible 0
SYMATTR InstName V1
SYMATTR Value 0V
SYMBOL tpower -224 208 R0
SYMATTR InstName X2
TEXT 88 288 Left 0 !.dc v1 -5 5 0.1
