Version 4
SHEET 1 880 680
WIRE 336 112 224 112
WIRE 208 128 112 128
WIRE 336 144 336 112
WIRE 368 144 336 144
WIRE 48 160 0 160
WIRE 112 160 112 128
WIRE 112 160 80 160
WIRE 144 160 112 160
WIRE 448 160 416 160
WIRE 256 176 160 176
WIRE 368 176 336 176
WIRE 336 192 336 176
WIRE 336 192 304 192
WIRE 256 208 208 208
WIRE 208 224 208 208
FLAG 0 160 IN
FLAG 208 224 0
FLAG 448 160 OUT
SYMBOL tnand 384 160 R0
SYMATTR InstName X1
SYMBOL tnand 272 192 R0
SYMATTR InstName X2
SYMBOL tinv 224 128 R0
SYMATTR InstName X3
SYMBOL tinv 160 160 R0
SYMATTR InstName X4
SYMBOL tinv 64 160 R0
SYMATTR InstName X5
