Version 4
SHEET 1 880 680
WIRE -400 -48 -688 -48
WIRE -64 -48 -400 -48
WIRE -112 0 -144 0
WIRE 16 0 -16 0
WIRE -64 48 -64 0
WIRE 48 48 -64 48
WIRE -144 128 -144 0
WIRE -144 128 -256 128
WIRE 16 128 16 0
WIRE 128 128 16 128
WIRE -752 176 -752 128
WIRE -752 176 -848 176
WIRE -576 176 -752 176
WIRE -64 208 -192 208
WIRE -896 224 -912 224
WIRE -800 224 -848 224
WIRE -624 224 -640 224
WIRE -528 224 -576 224
WIRE -768 240 -800 240
WIRE -496 240 -528 240
WIRE -144 256 -144 128
WIRE -112 256 -144 256
WIRE -64 256 -64 208
WIRE 16 256 16 128
WIRE 16 256 -16 256
WIRE -912 304 -912 224
WIRE -912 304 -1008 304
WIRE -848 304 -848 272
WIRE -688 304 -688 -48
WIRE -688 304 -848 304
WIRE -640 304 -640 224
WIRE -640 304 -688 304
WIRE -576 304 -576 272
WIRE -400 304 -576 304
WIRE -64 304 -400 304
WIRE -848 336 -848 304
WIRE -576 336 -576 304
WIRE -912 384 -912 304
WIRE -896 384 -912 384
WIRE -800 384 -848 384
WIRE -640 384 -640 304
WIRE -624 384 -640 384
WIRE -528 384 -576 384
WIRE -848 464 -848 432
WIRE -688 464 -848 464
WIRE -576 464 -576 432
WIRE -576 464 -688 464
WIRE -688 512 -688 464
FLAG 48 48 $G_Vdd
FLAG -192 208 $G_Vss
FLAG -256 128 IN_OUT
IOPIN -256 128 BiDir
FLAG 128 128 OUT_IN
IOPIN 128 128 BiDir
FLAG -800 384 $G_Vss
FLAG -800 224 $G_Vdd
FLAG -528 384 $G_Vss
FLAG -528 224 $G_Vdd
FLAG -688 512 $G_Vss
FLAG -752 128 $G_Vdd
FLAG -1008 304 CONTROL
IOPIN -1008 304 In
FLAG -400 -48 _C
FLAG -400 304 C
SYMBOL pmos5 -16 -48 R90
SYMATTR InstName M1
SYMATTR Value CD4007P
SYMBOL nmos5 -112 304 R270
SYMATTR InstName M2
SYMATTR Value CD4007N
SYMBOL pmos5 -896 176 R0
WINDOW 0 62 13 Left 0
WINDOW 3 63 89 Left 0
SYMATTR InstName M3
SYMATTR Value CD4007P
SYMBOL nmos5 -896 336 R0
WINDOW 0 59 16 Left 0
WINDOW 3 54 96 Left 0
SYMATTR InstName M4
SYMATTR Value CD4007N
SYMBOL pmos5 -624 176 R0
WINDOW 0 62 13 Left 0
WINDOW 3 63 89 Left 0
SYMATTR InstName M5
SYMATTR Value CD4007P
SYMBOL nmos5 -624 336 R0
WINDOW 0 59 16 Left 0
WINDOW 3 54 96 Left 0
SYMATTR InstName M6
SYMATTR Value CD4007N
TEXT -160 360 Left 0 ;CMOS Transmission Gate\n(Bidirectional analog switch)
TEXT -824 640 Left 0 ;Inverters for control signals
TEXT -1472 360 Left 0 ;Note: diodes and resistors on input not included
TEXT -584 -256 Left 0 ;Approximate model of 1/4 CD4016
