Version 4
SHEET 1 880 680
WIRE 272 160 224 160
WIRE 320 160 272 160
WIRE 400 160 352 160
WIRE 336 192 336 176
WIRE 224 208 224 160
WIRE 336 208 336 192
WIRE 224 304 224 288
WIRE 288 304 224 304
WIRE 336 304 336 288
WIRE 336 304 288 304
WIRE 288 320 288 304
FLAG 64 128 $G_Vdd
FLAG 64 192 $G_Vss
FLAG 272 160 IN
FLAG 400 160 OUT
FLAG 336 192 C
FLAG 288 320 0
SYMBOL tpower 64 160 R0
SYMATTR InstName X1
SYMBOL tg 336 160 R0
SYMATTR InstName X2
SYMBOL voltage 224 192 R0
WINDOW 3 -404 115 Left 0
WINDOW 123 0 0 Left 0
WINDOW 39 0 0 Left 0
SYMATTR Value SINE(0 5 200Meg 1n)
SYMATTR InstName V1
SYMBOL voltage 336 192 R0
WINDOW 123 0 0 Left 0
WINDOW 39 0 0 Left 0
SYMATTR InstName V2
SYMATTR Value PWL(0 -5 5n -5 6n 5 13n 5 14n -5)
TEXT 80 8 Left 0 !.tran 20n
