Version 4
SHEET 1 880 680
WIRE 208 -160 -176 -160
WIRE -224 -112 -256 -112
WIRE -176 -48 -176 -64
WIRE -80 -48 -176 -48
WIRE -176 -32 -176 -48
WIRE -336 64 -336 48
WIRE -256 64 -256 -112
WIRE -256 64 -336 64
WIRE -176 80 -176 48
WIRE -80 80 -176 80
WIRE -176 96 -176 80
WIRE -176 240 -176 176
WIRE -80 240 -176 240
WIRE -256 288 -256 64
WIRE -224 288 -256 288
WIRE 208 336 -176 336
FLAG -336 48 Vin
IOPIN -336 48 In
FLAG -80 80 STI_Out
IOPIN -80 80 Out
FLAG -80 -48 PTI_Out
IOPIN -80 -48 Out
FLAG -80 240 NTI_Out
IOPIN -80 240 Out
FLAG 208 -160 $G_Vdd
FLAG 208 336 $G_Vss
SYMBOL res -192 -48 R0
SYMATTR InstName R2
SYMATTR Value 10k
SYMBOL res -192 80 R0
SYMATTR InstName R3
SYMATTR Value 10k
SYMBOL nmos2 -224 240 R0
SYMATTR InstName M1
SYMATTR Value CD4007N
SYMBOL pmos2 -224 -64 M180
SYMATTR InstName M2
SYMATTR Value CD4007P
