Version 4
SHEET 1 880 680
WIRE 272 144 192 144
WIRE 192 160 192 144
WIRE 144 176 80 176
WIRE 176 176 144 176
WIRE 272 176 208 176
WIRE 80 208 80 176
WIRE 192 208 192 192
WIRE 272 208 192 208
WIRE 272 240 192 240
WIRE 192 256 192 240
WIRE 144 272 144 176
WIRE 176 272 144 272
WIRE 224 272 208 272
WIRE 192 304 192 288
WIRE 272 304 192 304
WIRE 80 320 80 288
FLAG 80 320 0
FLAG 224 272 0
FLAG 272 144 PTI_Out
FLAG 272 176 STI_Out
FLAG 272 208 NTI_Out
FLAG 272 240 EPTI_Out
FLAG 272 304 ENTI_Out
FLAG -272 256 $G_Vss
FLAG -272 192 $G_Vdd
SYMBOL voltage 80 192 R0
WINDOW 3 24 104 Invisible 0
SYMATTR Value -5V
SYMATTR InstName V1
SYMBOL tinv 192 176 R0
WINDOW 0 -35 29 Left 0
SYMATTR InstName U1
SYMBOL tinv 192 272 R0
WINDOW 0 -36 -32 Left 0
SYMATTR InstName U2
SYMBOL tpower -272 224 R0
SYMATTR InstName U3
TEXT -120 248 Left 0 !.dc V1 -5 5 0.1
