Version 4
SHEET 1 880 680
WIRE -176 -160 -352 -160
WIRE 208 -160 -176 -160
WIRE -448 -112 -560 -112
WIRE -400 -112 -448 -112
WIRE -224 -112 -256 -112
WIRE -176 -64 -352 -64
WIRE -176 -32 -176 -64
WIRE -176 80 -176 48
WIRE -112 80 -176 80
WIRE -176 96 -176 80
WIRE -176 240 -176 176
WIRE -448 288 -448 -112
WIRE -224 288 -448 288
WIRE -64 288 -176 288
WIRE -176 368 -176 336
WIRE -256 416 -256 -112
WIRE -256 416 -560 416
WIRE -224 416 -256 416
WIRE 208 464 -176 464
FLAG -112 80 TNAND_Out
IOPIN -112 80 Out
FLAG -560 -112 A
IOPIN -560 -112 In
FLAG -560 416 B
IOPIN -560 416 In
FLAG 208 -160 $G_Vdd
FLAG 208 464 $G_Vss
FLAG -64 288 $G_Vss
SYMBOL res -192 -48 R0
SYMATTR InstName R2
SYMATTR Value 10k
SYMBOL res -192 80 R0
SYMATTR InstName R3
SYMATTR Value 10k
SYMBOL pmos2 -224 -64 M180
SYMATTR InstName M2
SYMATTR Value CD4007P
SYMBOL pmos2 -400 -64 M180
SYMATTR InstName M4
SYMATTR Value CD4007P
SYMBOL nmos2 -224 368 R0
SYMATTR InstName M3
SYMATTR Value CD4007N
SYMBOL nmos5 -224 240 R0
SYMATTR InstName M1
SYMATTR Value CD4007N
