Version 4
SHEET 1 880 680
WIRE 192 112 112 112
WIRE 320 128 272 128
WIRE 112 208 112 112
WIRE 192 208 192 144
WIRE 112 320 112 288
WIRE 160 320 112 320
WIRE 192 320 192 288
WIRE 192 320 160 320
WIRE 160 368 160 320
FLAG 160 368 0
FLAG 320 128 TNAND_Out
FLAG 112 112 A
FLAG 192 144 B
FLAG -64 96 $G_Vdd
FLAG -64 160 $G_Vss
SYMBOL voltage 112 192 R0
WINDOW 3 -269 112 Left 0
WINDOW 123 0 0 Left 0
WINDOW 39 0 0 Left 0
SYMATTR Value PWL file=INPUT_A.txt
SYMATTR InstName VA
SYMBOL TNAND 224 128 R0
SYMATTR InstName X1
SYMBOL voltage 192 192 R0
WINDOW 3 27 108 Left 0
WINDOW 123 0 0 Left 0
WINDOW 39 0 0 Left 0
SYMATTR Value PWL file=INPUT_B.txt
SYMATTR InstName VB
SYMBOL tpower -64 128 R0
SYMATTR InstName U1
TEXT -120 416 Left 0 !.tran 500ns
