Version 4
SHEET 1 880 680
WIRE -352 -160 -544 -160
WIRE -176 -160 -352 -160
WIRE 208 -160 -176 -160
WIRE -224 -112 -256 -112
WIRE -352 -64 -544 -64
WIRE -176 -64 -352 -64
WIRE -176 -32 -176 -64
WIRE -176 80 -176 48
WIRE -112 80 -176 80
WIRE -176 96 -176 80
WIRE -176 224 -176 176
WIRE -176 240 -176 224
WIRE -256 272 -256 -112
WIRE -256 272 -672 272
WIRE -224 272 -256 272
WIRE -64 272 -176 272
WIRE -176 352 -176 320
WIRE -400 400 -400 -112
WIRE -400 400 -672 400
WIRE -224 400 -400 400
WIRE -64 400 -176 400
WIRE -176 480 -176 448
WIRE -592 528 -592 -112
WIRE -592 528 -672 528
WIRE -224 528 -592 528
WIRE 208 576 -176 576
FLAG -112 80 TNAND_Out
IOPIN -112 80 Out
FLAG -672 272 A
IOPIN -672 272 In
FLAG -672 400 B
IOPIN -672 400 In
FLAG 208 -160 $G_Vdd
FLAG 208 576 $G_Vss
FLAG -64 400 $G_Vss
FLAG -64 272 $G_Vss
FLAG -672 528 C
IOPIN -672 528 In
SYMBOL res -192 -48 R0
SYMATTR InstName R2
SYMATTR Value 10k
SYMBOL res -192 80 R0
SYMATTR InstName R3
SYMATTR Value 10k
SYMBOL pmos2 -224 -64 M180
SYMATTR InstName M2
SYMATTR Value CD4007P
SYMBOL pmos2 -400 -64 M180
SYMATTR InstName M4
SYMATTR Value CD4007P
SYMBOL nmos2 -224 480 R0
SYMATTR InstName M3
SYMATTR Value CD4007N
SYMBOL nmos5 -224 352 R0
SYMATTR InstName M1
SYMATTR Value CD4007N
SYMBOL pmos2 -592 -64 M180
SYMATTR InstName M5
SYMATTR Value CD4007P
SYMBOL nmos5 -224 224 R0
SYMATTR InstName M6
