Version 4
SHEET 1 880 680
WIRE -176 -160 -352 -160
WIRE 208 -160 -176 -160
WIRE -448 -112 -560 -112
WIRE -400 -112 -448 -112
WIRE -224 -112 -256 -112
WIRE -176 -64 -352 -64
WIRE -176 -48 -176 -64
WIRE -176 -16 -176 -48
WIRE -176 96 -176 64
WIRE -112 96 -176 96
WIRE -176 128 -176 96
WIRE -176 224 -176 208
WIRE -176 240 -176 224
WIRE -448 288 -448 -112
WIRE -224 288 -448 288
WIRE -64 288 -176 288
WIRE -176 352 -176 336
WIRE -176 368 -176 352
WIRE -256 416 -256 -112
WIRE -256 416 -560 416
WIRE -224 416 -256 416
WIRE 208 464 -176 464
FLAG -112 96 TNAND_Out
IOPIN -112 96 Out
FLAG -560 -112 A
IOPIN -560 -112 In
FLAG -560 416 B
IOPIN -560 416 In
FLAG 208 -160 $G_Vdd
FLAG 208 464 $G_Vss
FLAG -64 288 $G_Vss
FLAG -176 -48 NP
FLAG -176 224 NN
FLAG -176 352 NI
SYMBOL res -192 -32 R0
SYMATTR InstName RP
SYMATTR Value 12k
SYMBOL res -192 112 R0
SYMATTR InstName RN
SYMATTR Value 12k
SYMBOL pmos2 -224 -64 M180
SYMATTR InstName MP1
SYMATTR Value CD4007P
SYMBOL pmos2 -400 -64 M180
SYMATTR InstName MP2
SYMATTR Value CD4007P
SYMBOL nmos2 -224 368 R0
SYMATTR InstName MN2
SYMATTR Value CD4007N
SYMBOL nmos5 -224 240 R0
SYMATTR InstName MN1
SYMATTR Value CD4007N
