Version 4
SHEET 1 880 680
WIRE 208 112 112 112
WIRE 224 112 208 112
WIRE 336 128 288 128
WIRE 208 144 192 144
WIRE 224 144 208 144
WIRE 112 160 112 112
WIRE 192 160 192 144
WIRE 112 272 112 240
WIRE 160 272 112 272
WIRE 192 272 192 240
WIRE 192 272 160 272
WIRE 160 288 160 272
FLAG 160 288 0
FLAG 112 112 A
FLAG 192 144 B
FLAG 336 128 TNOR_Out
FLAG -208 64 $G_Vdd
FLAG -208 128 $G_Vss
SYMBOL voltage 112 144 R0
WINDOW 0 -74 58 Left 0
WINDOW 3 -255 98 Left 0
WINDOW 123 0 0 Left 0
WINDOW 39 0 0 Left 0
SYMATTR InstName VA
SYMATTR Value PWL file=INPUT_A.txt
SYMBOL voltage 192 144 R0
WINDOW 0 37 52 Left 0
WINDOW 123 0 0 Left 0
WINDOW 39 0 0 Left 0
SYMATTR InstName VB
SYMATTR Value PWL file=INPUT_B.txt
SYMBOL tnor 240 128 R0
SYMATTR InstName X1
SYMBOL tpower -208 96 R0
SYMATTR InstName X2
TEXT 40 312 Left 0 !.tran 500ns
