Version 4
SHEET 1 880 680
WIRE 208 -448 -176 -448
WIRE -176 -416 -176 -448
WIRE -256 -368 -544 -368
WIRE -224 -368 -256 -368
WIRE -64 -368 -176 -368
WIRE -176 -288 -176 -320
WIRE -400 -240 -544 -240
WIRE -224 -240 -400 -240
WIRE -64 -240 -176 -240
WIRE -176 -160 -176 -192
WIRE -528 -112 -544 -112
WIRE -224 -112 -528 -112
WIRE -64 -112 -176 -112
WIRE -176 -32 -176 -64
WIRE -176 80 -176 48
WIRE -112 80 -176 80
WIRE -176 96 -176 80
WIRE -320 224 -464 224
WIRE -176 224 -176 176
WIRE -176 224 -320 224
WIRE -464 240 -464 224
WIRE -320 240 -320 224
WIRE -176 240 -176 224
WIRE -528 288 -528 -112
WIRE -512 288 -528 288
WIRE -400 288 -400 -240
WIRE -368 288 -400 288
WIRE -256 288 -256 -368
WIRE -224 288 -256 288
WIRE -464 368 -464 336
WIRE -320 368 -320 336
WIRE -320 368 -464 368
WIRE -176 368 -176 336
WIRE -176 368 -320 368
WIRE 208 368 -176 368
FLAG -112 80 TNOR_Out
IOPIN -112 80 Out
FLAG -544 -368 A
IOPIN -544 -368 In
FLAG -544 -240 B
IOPIN -544 -240 In
FLAG -544 -112 C
IOPIN -544 -112 In
FLAG 208 -448 $G_Vdd
FLAG 208 368 $G_Vss
FLAG -64 -112 $G_Vdd
FLAG -64 -240 $G_Vdd
FLAG -64 -368 $G_Vdd
SYMBOL res -192 -48 R0
SYMATTR InstName RP
SYMATTR Value 10k
SYMBOL res -192 80 R0
SYMATTR InstName RN
SYMATTR Value 10k
SYMBOL nmos2 -224 240 R0
SYMATTR InstName MN1
SYMATTR Value CD4007N
SYMBOL nmos2 -368 240 R0
SYMATTR InstName MN2
SYMATTR Value CD4007N
SYMBOL nmos2 -512 240 R0
SYMATTR InstName MN3
SYMATTR Value CD4007N
SYMBOL pmos5 -224 -160 R0
SYMATTR InstName MP1
SYMATTR Value CD4007P
SYMBOL pmos5 -224 -288 R0
SYMATTR InstName MP2
SYMATTR Value CD4007P
SYMBOL pmos5 -224 -416 R0
SYMATTR InstName MP3
SYMATTR Value CD4007P
