Version 4
SHEET 1 880 680
WIRE 208 -288 -176 -288
WIRE -256 -240 -544 -240
WIRE -224 -240 -256 -240
WIRE -176 -160 -176 -192
WIRE -224 -112 -400 -112
WIRE -48 -112 -176 -112
WIRE -176 -32 -176 -64
WIRE -176 80 -176 48
WIRE -112 80 -176 80
WIRE -176 96 -176 80
WIRE -176 224 -176 176
WIRE -176 224 -320 224
WIRE -320 240 -320 224
WIRE -176 240 -176 224
WIRE -400 288 -400 -112
WIRE -400 288 -544 288
WIRE -368 288 -400 288
WIRE -256 288 -256 -240
WIRE -224 288 -256 288
WIRE -320 368 -320 336
WIRE -176 368 -176 336
WIRE -176 368 -320 368
WIRE 208 368 -176 368
FLAG -112 80 TNOR_Out
IOPIN -112 80 Out
FLAG -544 -240 A
IOPIN -544 -240 In
FLAG -544 288 B
IOPIN -544 288 In
FLAG 208 -288 $G_Vdd
FLAG 208 368 $G_Vss
FLAG -48 -112 $G_Vdd
SYMBOL res -192 -48 R0
SYMATTR InstName R2
SYMATTR Value 10k
SYMBOL res -192 80 R0
SYMATTR InstName R3
SYMATTR Value 10k
SYMBOL nmos2 -224 240 R0
SYMATTR InstName M1
SYMATTR Value CD4007N
SYMBOL pmos2 -224 -192 M180
SYMATTR InstName M4
SYMATTR Value CD4007P
SYMBOL nmos2 -368 240 R0
SYMATTR InstName M3
SYMATTR Value CD4007N
SYMBOL pmos5 -224 -160 R0
SYMATTR InstName M5
SYMATTR Value CD4007P
