Version 4
SHEET 1 1208 680
WIRE 928 80 768 80
WIRE 768 96 768 80
WIRE 768 96 736 96
WIRE 816 96 768 96
WIRE 1024 96 1008 96
WIRE 1104 96 1072 96
WIRE 192 112 112 112
WIRE 208 112 192 112
WIRE 912 112 896 112
WIRE 928 112 912 112
WIRE 192 128 192 112
WIRE 208 128 192 128
WIRE 224 128 208 128
WIRE 336 128 288 128
WIRE 208 144 192 144
WIRE 736 144 736 96
WIRE 816 144 816 128
WIRE 112 160 112 112
WIRE 192 160 192 144
WIRE 736 256 736 224
WIRE 784 256 736 256
WIRE 816 256 816 224
WIRE 816 256 784 256
WIRE 1104 256 1104 176
WIRE 1104 256 816 256
WIRE 112 272 112 240
WIRE 160 272 112 272
WIRE 192 272 192 240
WIRE 192 272 160 272
WIRE 336 272 336 208
WIRE 336 272 192 272
WIRE 784 272 784 256
WIRE 160 288 160 272
FLAG 160 288 0
FLAG 112 112 A
FLAG 192 144 B
FLAG 336 128 TNOR_Out
FLAG -256 112 $G_Vdd
FLAG -256 176 $G_Vss
FLAG 784 272 0
FLAG 736 96 A2
FLAG 816 128 B2
FLAG 912 112 _B2A2
FLAG 1008 96 C
FLAG 1104 96 _C
SYMBOL voltage 112 144 R0
WINDOW 0 -74 58 Left 0
WINDOW 3 -255 98 Left 0
WINDOW 123 0 0 Left 0
WINDOW 39 0 0 Left 0
SYMATTR InstName VA
SYMATTR Value PWL file=INPUT_A.txt
SYMBOL voltage 192 144 R0
WINDOW 0 37 52 Left 0
WINDOW 123 0 0 Left 0
WINDOW 39 0 0 Left 0
SYMATTR InstName VB
SYMATTR Value PWL file=INPUT_B.txt
SYMBOL tpower -256 144 R0
SYMATTR InstName U2
SYMBOL res 320 112 R0
SYMATTR InstName R1
SYMATTR Value 10Meg
SYMBOL voltage 736 128 R0
WINDOW 0 -74 58 Left 0
WINDOW 3 -255 98 Left 0
WINDOW 123 0 0 Left 0
WINDOW 39 0 0 Left 0
SYMATTR InstName VA1
SYMATTR Value PWL file=INPUT_A.txt
SYMBOL voltage 816 128 R0
WINDOW 0 37 52 Left 0
WINDOW 123 0 0 Left 0
WINDOW 39 0 0 Left 0
SYMATTR InstName VB1
SYMATTR Value PWL file=INPUT_B.txt
SYMBOL tnor 848 112 R0
SYMATTR InstName X1
SYMBOL tnor 960 96 R0
SYMATTR InstName X2
SYMBOL res 1088 80 R0
SYMATTR InstName R2
SYMATTR Value 10Meg
SYMBOL tnor3 240 128 R0
SYMATTR InstName U1
SYMBOL tinv 1040 96 R0
SYMATTR InstName U3
TEXT 40 312 Left 0 !.tran 500ns
