Version 4
SHEET 1 880 680
FLAG 160 144 $G_Vdd
FLAG 160 208 $G_Vss
SYMBOL tpower 160 176 R0
SYMATTR InstName X1
TEXT 80 368 Left 0 !.op
