Version 4
SHEET 1 880 680
WIRE 224 96 192 96
WIRE 224 176 192 176
WIRE 224 256 192 256
FLAG -16 144 $G_Vdd
FLAG -16 208 $G_Vss
FLAG 224 96 TRIT_i
FLAG 224 176 TRIT_0
FLAG 224 256 TRIT_1
SYMBOL trit-i 128 96 M0
SYMATTR InstName trit_i
SYMBOL tpower -16 176 R0
SYMATTR InstName power
SYMBOL trit-0 128 176 M0
SYMATTR InstName trit_0
SYMBOL trit-1 128 256 M0
SYMATTR InstName trit_1
TEXT 184 320 Left 0 !.op
