Version 4
SHEET 1 880 680
WIRE 96 80 16 80
WIRE 320 80 256 80
WIRE 96 128 64 128
WIRE 96 256 32 256
WIRE 304 256 256 256
WIRE 64 304 64 128
WIRE 96 304 64 304
WIRE 16 352 16 80
WIRE 16 352 -272 352
WIRE 320 352 320 80
WIRE 528 352 320 352
WIRE 32 384 32 256
WIRE 32 384 -272 384
WIRE 304 384 304 256
WIRE 528 384 304 384
WIRE 96 416 -272 416
WIRE 528 416 256 416
WIRE 64 464 64 304
WIRE 64 464 -272 464
WIRE 96 464 64 464
FLAG -272 464 CLK
IOPIN -272 464 In
FLAG -272 416 D0
IOPIN -272 416 In
FLAG -272 384 D1
IOPIN -272 384 In
FLAG -272 352 D2
IOPIN -272 352 In
FLAG 528 416 Q0
IOPIN 528 416 Out
FLAG 528 384 Q1
IOPIN 528 384 Out
FLAG 528 352 Q2
IOPIN 528 352 Out
SYMBOL dtflop-ms 176 32 R0
SYMATTR InstName Xtrit2
SYMBOL dtflop-ms 176 208 R0
SYMATTR InstName Xtrit1
SYMBOL dtflop-ms 176 368 R0
SYMATTR InstName Xtrit0
