Version 4
SHEET 1 880 680
WIRE 176 -112 144 -112
WIRE 192 -112 176 -112
WIRE 384 -112 352 -112
WIRE 48 -80 0 -80
WIRE 96 -80 48 -80
WIRE 144 -80 144 -112
WIRE 144 -80 96 -80
WIRE 192 -80 144 -80
WIRE 384 -80 352 -80
WIRE 48 -48 48 -80
WIRE 80 -48 48 -48
WIRE 160 -48 128 -48
WIRE 192 -48 160 -48
WIRE 384 -48 352 -48
WIRE 192 64 112 64
WIRE 0 208 0 -80
WIRE 112 208 112 64
WIRE 64 288 0 288
WIRE 112 288 64 288
WIRE 64 320 64 288
FLAG 64 320 0
FLAG -320 224 $G_Vdd
FLAG -320 288 $G_Vss
FLAG 112 64 CLK
FLAG 384 -112 Q0
FLAG 384 -80 Q1
FLAG 384 -48 Q2
FLAG 160 -48 D2
FLAG 96 -80 D1
FLAG 176 -112 D0
SYMBOL voltage 112 192 R0
WINDOW 123 0 0 Left 0
WINDOW 39 0 0 Left 0
SYMATTR InstName V1
SYMATTR Value PULSE(5 -5 0 1p 1p 10n 20n)
SYMBOL voltage 0 192 R0
WINDOW 3 -45 164 Left 0
WINDOW 123 0 0 Left 0
WINDOW 39 0 0 Left 0
SYMATTR Value PWL(0 0 7n 0 8n 5 17n 5 18n 0 24n 0 25n -5 34n -5 35n 5)
SYMATTR InstName V2
SYMBOL tpower -320 256 R0
SYMATTR InstName X1
SYMBOL trit_reg3 272 -160 R0
SYMATTR InstName X2
SYMBOL sti 96 -48 R0
WINDOW 0 1 26 Center 0
SYMATTR InstName Xinv
TEXT 216 248 Left 0 !.tran 50n
