Version 4
SHEET 1 880 680
WIRE 96 64 16 64
WIRE 320 64 256 64
WIRE 96 112 64 112
WIRE 96 240 32 240
WIRE 304 240 256 240
WIRE 64 288 64 112
WIRE 96 288 64 288
WIRE 16 352 16 64
WIRE 16 352 -272 352
WIRE 320 352 320 64
WIRE 528 352 320 352
WIRE 32 384 32 240
WIRE 32 384 -272 384
WIRE 304 384 304 240
WIRE 528 384 304 384
WIRE 96 416 -272 416
WIRE 528 416 256 416
WIRE 64 464 64 288
WIRE 64 464 -272 464
WIRE 96 464 64 464
FLAG -272 464 CLK
IOPIN -272 464 In
FLAG -272 416 D0
IOPIN -272 416 In
FLAG -272 384 D1
IOPIN -272 384 In
FLAG -272 352 D2
IOPIN -272 352 In
FLAG 528 416 Q0
IOPIN 528 416 Out
FLAG 528 384 Q1
IOPIN 528 384 Out
FLAG 528 352 Q2
IOPIN 528 352 Out
SYMBOL dtflop-ms2 176 368 R0
SYMATTR InstName Xtrit0
SYMBOL dtflop-ms2 176 192 R0
SYMATTR InstName Xtrit1
SYMBOL dtflop-ms2 176 16 R0
SYMATTR InstName Xtrit2
