Version 4
SHEET 1 6348 708
WIRE 240 -272 112 -272
WIRE 480 -256 432 -256
WIRE 240 -240 144 -240
WIRE 240 -208 176 -208
WIRE 112 -16 112 -272
WIRE 112 -16 -336 -16
WIRE 192 -16 112 -16
WIRE 240 -16 192 -16
WIRE 480 0 432 0
WIRE -48 16 -112 16
WIRE 144 16 144 -240
WIRE 144 16 -48 16
WIRE 240 16 144 16
WIRE 176 48 176 -208
WIRE 176 48 48 48
WIRE 240 48 176 48
WIRE -336 288 -336 -16
WIRE -112 288 -112 16
WIRE 48 288 48 48
WIRE -336 400 -336 368
WIRE -112 400 -112 368
WIRE -112 400 -336 400
WIRE -16 400 -112 400
WIRE 48 400 48 368
WIRE 48 400 -16 400
WIRE -16 432 -16 400
FLAG -464 176 $G_Vss
FLAG -464 112 $G_Vdd
FLAG -16 432 0
FLAG -48 16 I1
FLAG 48 48 I0
FLAG 192 -16 I2
FLAG 480 0 SIGN3
FLAG 480 -256 SIGN4
FLAG 240 -304 0
SYMBOL tpower -464 144 R0
SYMATTR InstName X1
SYMBOL voltage -112 272 R0
WINDOW 3 -283 226 Invisible 0
WINDOW 123 0 0 Left 0
WINDOW 39 0 0 Left 0
SYMATTR Value PWL(0 -5 50E-9 -5 60E-9 -5 110E-9 -5 120E-9 -5 170E-9 -5 180E-9 0 230E-9 0 240E-9 0 290E-9 0 300E-9 0 350E-9 0 360E-9 5 410E-9 5 420E-9 5 470E-9 5 480E-9 5 530E-9 5 550E-9 -5 600E-9 -5 610E-9 -5 660E-9 -5 670E-9 -5 720E-9 -5 730E-9 0 780E-9 0 790E-9 0 840E-9 0 850E-9 0 900E-9 0 910E-9 5 960E-9 5 970E-9 5 1020E-9 5 1030E-9 5 1080E-9 5 1100E-9 -5 1150E-9 -5 1160E-9 -5 1210E-9 -5 1220E-9 -5 1270E-9 -5 1280E-9 0 1330E-9 0 1340E-9 0 1390E-9 0 1400E-9 0 1450E-9 0 1460E-9 5 1510E-9 5 1520E-9 5 1570E-9 5 1580E-9 5 1630E-9 5)
SYMATTR InstName V1
SYMBOL voltage 48 272 R0
WINDOW 3 -440 260 Invisible 0
WINDOW 123 0 0 Left 0
WINDOW 39 0 0 Left 0
SYMATTR Value PWL(0 -5 50E-9 -5 60E-9 0 110E-9 0 120E-9 5 170E-9 5 180E-9 -5 230E-9 -5 240E-9 0 290E-9 0 300E-9 5 350E-9 5 360E-9 -5 410E-9 -5 420E-9 0 470E-9 0 480E-9 5 530E-9 5 550E-9 -5 600E-9 -5 610E-9 0 660E-9 0 670E-9 5 720E-9 5 730E-9 -5 780E-9 -5 790E-9 0 840E-9 0 850E-9 5 900E-9 5 910E-9 -5 960E-9 -5 970E-9 0 1020E-9 0 1030E-9 5 1080E-9 5 1100E-9 -5 1150E-9 -5 1160E-9 0 1210E-9 0 1220E-9 5 1270E-9 5 1280E-9 -5 1330E-9 -5 1340E-9 0 1390E-9 0 1400E-9 5 1450E-9 5 1460E-9 -5 1510E-9 -5 1520E-9 0 1570E-9 0 1580E-9 5 1630E-9 5)
SYMATTR InstName V0
SYMBOL voltage -336 272 R0
WINDOW 3 -53 187 Left 0
SYMATTR Value PWL(0 -5 549n -5 550n 0 1099n 0 1100n 5)
SYMATTR InstName V2
SYMBOL tsign3 336 -48 R0
SYMATTR InstName X3
SYMBOL tsign4 336 -304 R0
SYMATTR InstName X2
TEXT 16 432 Left 0 !.tran 1650n
TEXT 112 312 Left 0 ;Note: VA and VB are PWL's that cycle through i,0,1;\nat different frequencies. Not on schematic due to length.
TEXT 200 -160 Left 0 ;^ 4-trit sign circuit isn't tested for I3 other than 0\nManually change input to $G_Vss or $G_Vdd,\nexpecting SIGN4 = -5 V and +5 V, to test it.
