Version 4
SHEET 1 880 680
WIRE 240 112 208 112
WIRE 144 224 144 192
WIRE 144 224 96 224
WIRE 240 352 240 112
WIRE 368 352 240 352
WIRE 512 352 480 352
WIRE 416 480 416 432
WIRE 416 480 368 480
FLAG 368 320 $G_Vss
FLAG 368 384 $G_Vdd
FLAG 368 480 I2
IOPIN 368 480 In
FLAG 96 80 $G_Vss
FLAG 96 144 $G_Vdd
FLAG 96 112 I0
IOPIN 96 112 In
FLAG 96 224 I1
IOPIN 96 224 In
FLAG 512 352 SIGN
IOPIN 512 352 Out
SYMBOL mux3-1 160 80 R0
SYMATTR InstName XcheckI1
SYMBOL mux3-1 432 320 R0
SYMATTR InstName XcheckI2
