Version 4
SHEET 1 880 680
WIRE 96 112 -80 112
WIRE 368 112 208 112
WIRE 512 112 480 112
WIRE -144 240 -144 192
WIRE -144 240 -192 240
WIRE 144 240 144 192
WIRE 144 240 96 240
WIRE 416 240 416 192
WIRE 416 240 368 240
FLAG 368 80 $G_Vss
FLAG 368 144 $G_Vdd
FLAG 368 240 I3
IOPIN 368 240 In
FLAG 96 80 $G_Vss
FLAG 96 144 $G_Vdd
FLAG 96 240 I2
IOPIN 96 240 In
FLAG 512 112 SIGN
IOPIN 512 112 Out
FLAG -192 240 I1
IOPIN -192 240 In
FLAG -192 112 I0
IOPIN -192 112 In
FLAG -192 80 $G_Vss
FLAG -192 144 $G_Vdd
SYMBOL mux3-1 160 80 R0
SYMATTR InstName XcheckI2
SYMBOL mux3-1 432 80 R0
SYMATTR InstName XcheckI3
SYMBOL mux3-1 -128 80 R0
SYMATTR InstName XcheckI1
