Version 4
SHEET 1 880 680
WIRE 544 32 -144 32
WIRE -144 128 -144 32
WIRE -112 128 -144 128
WIRE 16 128 -80 128
WIRE 96 128 48 128
WIRE 144 128 96 128
WIRE 144 144 128 144
WIRE 256 144 224 144
WIRE 272 144 256 144
WIRE 320 144 304 144
WIRE 384 144 320 144
WIRE 384 160 352 160
WIRE 544 160 544 32
WIRE 544 160 464 160
WIRE 592 160 544 160
WIRE 48 176 16 176
WIRE 48 208 48 176
WIRE 144 208 144 160
WIRE 144 208 48 208
WIRE 352 208 352 160
WIRE 352 208 144 208
WIRE 528 208 352 208
WIRE 128 224 128 144
WIRE 128 224 16 224
WIRE 240 224 128 224
WIRE 512 224 240 224
WIRE 528 224 528 208
WIRE 544 224 544 160
WIRE 272 240 48 240
WIRE 384 240 384 176
WIRE 384 240 272 240
WIRE 48 272 48 240
WIRE 48 272 16 272
WIRE 240 272 240 224
WIRE 256 272 256 144
WIRE 272 272 272 240
WIRE 320 320 320 144
WIRE 352 320 320 320
WIRE 528 320 528 304
WIRE 528 320 384 320
WIRE 96 384 96 128
WIRE 144 384 96 384
WIRE 256 384 256 352
WIRE 256 384 176 384
WIRE 32 416 32 144
WIRE 368 416 368 336
WIRE 368 416 32 416
WIRE 32 480 32 464
WIRE 32 480 -48 480
WIRE 160 480 160 400
WIRE 160 480 32 480
WIRE 288 480 288 160
WIRE 288 480 160 480
FLAG 16 176 P
IOPIN 16 176 In
FLAG 16 224 Z
IOPIN 16 224 In
FLAG 16 272 N
IOPIN 16 272 In
FLAG 592 160 Q
IOPIN 592 160 Out
FLAG -48 480 T
IOPIN -48 480 In
SYMBOL tg 32 128 R0
SYMATTR InstName X126a
SYMBOL tg 160 384 R0
SYMATTR InstName X127b
SYMBOL tg 288 144 R0
SYMATTR InstName X127a
SYMBOL tg 368 320 R0
SYMATTR InstName X126b
SYMBOL tnor3 176 144 R0
SYMATTR InstName X32a
SYMBOL tnor3 416 160 R0
SYMATTR InstName X32b
SYMBOL tnor3 528 256 R90
SYMATTR InstName X32c
SYMBOL tnor3 256 304 R90
SYMATTR InstName X32d
SYMBOL tcycle_up -96 128 R0
SYMATTR InstName X180
SYMBOL sti 32 448 R270
SYMATTR InstName Xsti
