Version 4
SHEET 1 880 680
WIRE 336 -48 48 -48
WIRE 368 -48 336 -48
WIRE 624 -48 528 -48
WIRE 352 64 160 64
WIRE 400 64 400 32
WIRE 400 64 352 64
WIRE 352 112 256 112
WIRE 448 112 448 32
WIRE 448 112 352 112
WIRE 496 160 496 32
WIRE 496 160 352 160
WIRE 48 256 48 -48
WIRE 160 256 160 64
WIRE 256 256 256 112
WIRE 352 256 352 160
WIRE 48 352 48 336
WIRE 160 352 160 336
WIRE 160 352 48 352
WIRE 256 352 256 336
WIRE 256 352 160 352
WIRE 352 352 352 336
WIRE 352 352 256 352
WIRE 256 384 256 352
FLAG -144 112 $G_Vdd
FLAG -144 176 $G_Vss
FLAG 256 384 0
FLAG 624 -48 Q
FLAG 352 64 P
FLAG 352 112 Z
FLAG 352 160 N
FLAG 336 -48 T
SYMBOL voltage 352 240 R0
WINDOW 3 -31 130 Left 0
WINDOW 123 0 0 Left 0
WINDOW 39 0 0 Left 0
SYMATTR Value PWL file=input_n.txt
SYMATTR InstName VN
SYMBOL voltage 256 240 R0
WINDOW 3 -91 180 Left 0
WINDOW 123 0 0 Left 0
WINDOW 39 0 0 Left 0
SYMATTR Value PWL file=input_z.txt
SYMATTR InstName VZ
SYMBOL voltage 160 240 R0
WINDOW 3 -92 -19 Left 0
WINDOW 123 0 0 Left 0
WINDOW 39 0 0 Left 0
SYMATTR Value PWL file=input_p.txt
SYMATTR InstName VP
SYMBOL tpower -144 144 R0
SYMATTR InstName U1
SYMBOL ttlatch 448 -112 R0
SYMATTR InstName X1
SYMBOL voltage 48 240 R0
SYMATTR InstName VT
SYMATTR Value 0V
TEXT -256 440 Left 0 !;tran 0 65ns 35ns
TEXT -256 408 Left 0 !.tran 40ns
TEXT -504 -120 Left 0 ;TODO: test toggle input (which cycles up Q when it goes high)\nP, Z, N should set the latch when they go high, middle, or high respectively\n(indepedently of T)
