X1 1 lowest

.subckt lowest LL
RLL LL LL 12k
.ends

