Xtop 7 low

.subckt low L
X1 L lowest
.ends

.subckt lowest LL
RLL LL LL 12k
.ends

